104741
  -OEChem-12171208222D

 88 91  0     1  0  0  0  0  0999 V2000
   11.4954   -3.1972    0.0000 S   0  0  3  0  0  0  0  0  0  0  0  0
   14.2620   -6.1654    0.0000 F   0  0  0  0  0  0  0  0  0  0  0  0
   12.2621   -6.1885    0.0000 F   0  0  0  0  0  0  0  0  0  0  0  0
   13.2852   -8.1768    0.0000 F   0  0  0  0  0  0  0  0  0  0  0  0
   14.2735   -7.1653    0.0000 F   0  0  0  0  0  0  0  0  0  0  0  0
   12.2737   -7.1885    0.0000 F   0  0  0  0  0  0  0  0  0  0  0  0
    9.1857    8.0490    0.0000 O   0  0  0  0  0  0  0  0  0  0  0  0
    2.5357    3.7414    0.0000 O   0  0  0  0  0  0  0  0  0  0  0  0
   10.6352   -3.7072    0.0000 O   0  0  0  0  0  0  0  0  0  0  0  0
    7.9288    5.7937    0.0000 C   0  0  2  0  0  0  0  0  0  0  0  0
    7.9288    6.7937    0.0000 C   0  0  2  0  0  0  0  0  0  0  0  0
    7.0628    5.2937    0.0000 C   0  0  1  0  0  0  0  0  0  0  0  0
    6.1968    5.7937    0.0000 C   0  0  2  0  0  0  0  0  0  0  0  0
    7.0628    7.2937    0.0000 C   0  0  0  0  0  0  0  0  0  0  0  0
    8.8750    7.0985    0.0000 C   0  0  2  0  0  0  0  0  0  0  0  0
    8.8750    5.4890    0.0000 C   0  0  0  0  0  0  0  0  0  0  0  0
    7.0789    4.2522    0.0000 C   0  0  1  0  0  0  0  0  0  0  0  0
    6.1968    6.7937    0.0000 C   0  0  0  0  0  0  0  0  0  0  0  0
    9.4586    6.2937    0.0000 C   0  0  0  0  0  0  0  0  0  0  0  0
    7.9288    7.7937    0.0000 C   0  0  0  0  0  0  0  0  0  0  0  0
    5.2868    5.2869    0.0000 C   0  0  0  0  0  0  0  0  0  0  0  0
    6.1808    3.7245    0.0000 C   0  0  0  0  0  0  0  0  0  0  0  0
    7.9506    3.7623    0.0000 C   0  0  0  0  0  0  0  0  0  0  0  0
    5.2787    4.2453    0.0000 C   0  0  0  0  0  0  0  0  0  0  0  0
    7.9622    2.7623    0.0000 C   0  0  0  0  0  0  0  0  0  0  0  0
    4.3599    5.8510    0.0000 C   0  0  0  0  0  0  0  0  0  0  0  0
    4.3433    3.6956    0.0000 C   0  0  0  0  0  0  0  0  0  0  0  0
    8.8339    2.2724    0.0000 C   0  0  0  0  0  0  0  0  0  0  0  0
    3.4120    5.3230    0.0000 C   0  0  0  0  0  0  0  0  0  0  0  0
    3.4037    4.2381    0.0000 C   0  0  0  0  0  0  0  0  0  0  0  0
    8.8455    1.2724    0.0000 C   0  0  0  0  0  0  0  0  0  0  0  0
    9.7172    0.7825    0.0000 C   0  0  0  0  0  0  0  0  0  0  0  0
    9.7288   -0.2174    0.0000 C   0  0  0  0  0  0  0  0  0  0  0  0
   10.6005   -0.7074    0.0000 C   0  0  0  0  0  0  0  0  0  0  0  0
   10.6121   -1.7073    0.0000 C   0  0  0  0  0  0  0  0  0  0  0  0
   11.4839   -2.1973    0.0000 C   0  0  0  0  0  0  0  0  0  0  0  0
   12.3672   -3.6872    0.0000 C   0  0  0  0  0  0  0  0  0  0  0  0
   12.3787   -4.6871    0.0000 C   0  0  0  0  0  0  0  0  0  0  0  0
   13.2505   -5.1770    0.0000 C   0  0  0  0  0  0  0  0  0  0  0  0
   13.2620   -6.1770    0.0000 C   0  0  0  0  0  0  0  0  0  0  0  0
   13.2736   -7.1769    0.0000 C   0  0  0  0  0  0  0  0  0  0  0  0
    8.0188    4.9485    0.0000 H   0  0  0  0  0  0  0  0  0  0  0  0
    7.8022    4.8744    0.0000 H   0  0  0  0  0  0  0  0  0  0  0  0
    6.9329    6.2187    0.0000 H   0  0  0  0  0  0  0  0  0  0  0  0
    7.4613    7.7687    0.0000 H   0  0  0  0  0  0  0  0  0  0  0  0
    6.6643    7.7687    0.0000 H   0  0  0  0  0  0  0  0  0  0  0  0
    9.4875    7.1947    0.0000 H   0  0  0  0  0  0  0  0  0  0  0  0
    8.6240    4.9221    0.0000 H   0  0  0  0  0  0  0  0  0  0  0  0
    9.4124    5.1798    0.0000 H   0  0  0  0  0  0  0  0  0  0  0  0
    7.0848    3.6322    0.0000 H   0  0  0  0  0  0  0  0  0  0  0  0
    5.9847    7.3763    0.0000 H   0  0  0  0  0  0  0  0  0  0  0  0
    5.5862    6.6861    0.0000 H   0  0  0  0  0  0  0  0  0  0  0  0
    9.9195    5.8790    0.0000 H   0  0  0  0  0  0  0  0  0  0  0  0
    9.9195    6.7085    0.0000 H   0  0  0  0  0  0  0  0  0  0  0  0
    8.5488    7.7937    0.0000 H   0  0  0  0  0  0  0  0  0  0  0  0
    7.9288    8.4137    0.0000 H   0  0  0  0  0  0  0  0  0  0  0  0
    7.3088    7.7937    0.0000 H   0  0  0  0  0  0  0  0  0  0  0  0
    5.7835    3.2485    0.0000 H   0  0  0  0  0  0  0  0  0  0  0  0
    6.5818    3.2516    0.0000 H   0  0  0  0  0  0  0  0  0  0  0  0
    8.5624    3.6617    0.0000 H   0  0  0  0  0  0  0  0  0  0  0  0
    8.1559    4.3473    0.0000 H   0  0  0  0  0  0  0  0  0  0  0  0
    9.7924    8.1768    0.0000 H   0  0  0  0  0  0  0  0  0  0  0  0
    7.3504    2.8629    0.0000 H   0  0  0  0  0  0  0  0  0  0  0  0
    7.7569    2.1773    0.0000 H   0  0  0  0  0  0  0  0  0  0  0  0
    4.3719    6.4709    0.0000 H   0  0  0  0  0  0  0  0  0  0  0  0
    4.3457    3.0756    0.0000 H   0  0  0  0  0  0  0  0  0  0  0  0
    9.4457    2.1718    0.0000 H   0  0  0  0  0  0  0  0  0  0  0  0
    9.0392    2.8574    0.0000 H   0  0  0  0  0  0  0  0  0  0  0  0
    2.8787    5.6392    0.0000 H   0  0  0  0  0  0  0  0  0  0  0  0
    8.2337    1.3731    0.0000 H   0  0  0  0  0  0  0  0  0  0  0  0
    8.6402    0.6874    0.0000 H   0  0  0  0  0  0  0  0  0  0  0  0
   10.3290    0.6819    0.0000 H   0  0  0  0  0  0  0  0  0  0  0  0
    9.9225    1.3675    0.0000 H   0  0  0  0  0  0  0  0  0  0  0  0
    2.0000    4.0535    0.0000 H   0  0  0  0  0  0  0  0  0  0  0  0
    9.1170   -0.1168    0.0000 H   0  0  0  0  0  0  0  0  0  0  0  0
    9.5235   -0.8025    0.0000 H   0  0  0  0  0  0  0  0  0  0  0  0
   11.2123   -0.8080    0.0000 H   0  0  0  0  0  0  0  0  0  0  0  0
   10.8058   -0.1224    0.0000 H   0  0  0  0  0  0  0  0  0  0  0  0
   10.0003   -1.6067    0.0000 H   0  0  0  0  0  0  0  0  0  0  0  0
   10.4068   -2.2923    0.0000 H   0  0  0  0  0  0  0  0  0  0  0  0
   12.0956   -2.2979    0.0000 H   0  0  0  0  0  0  0  0  0  0  0  0
   11.6892   -1.6122    0.0000 H   0  0  0  0  0  0  0  0  0  0  0  0
   12.9790   -3.7878    0.0000 H   0  0  0  0  0  0  0  0  0  0  0  0
   12.5725   -3.1021    0.0000 H   0  0  0  0  0  0  0  0  0  0  0  0
   11.7669   -4.5865    0.0000 H   0  0  0  0  0  0  0  0  0  0  0  0
   12.1734   -5.2721    0.0000 H   0  0  0  0  0  0  0  0  0  0  0  0
   13.8623   -5.2776    0.0000 H   0  0  0  0  0  0  0  0  0  0  0  0
   13.4558   -4.5920    0.0000 H   0  0  0  0  0  0  0  0  0  0  0  0
  1  9  2  0  0  0  0
  1 36  1  0  0  0  0
  1 37  1  0  0  0  0
  2 40  1  0  0  0  0
  3 40  1  0  0  0  0
  4 41  1  0  0  0  0
  5 41  1  0  0  0  0
  6 41  1  0  0  0  0
 15  7  1  1  0  0  0
  7 62  1  0  0  0  0
  8 30  1  0  0  0  0
  8 74  1  0  0  0  0
 10 11  1  0  0  0  0
 10 12  1  0  0  0  0
 10 16  1  0  0  0  0
 10 42  1  6  0  0  0
 11 14  1  0  0  0  0
 11 15  1  0  0  0  0
 11 20  1  1  0  0  0
 12 13  1  0  0  0  0
 12 17  1  0  0  0  0
 12 43  1  1  0  0  0
 13 18  1  0  0  0  0
 13 21  1  0  0  0  0
 13 44  1  6  0  0  0
 14 18  1  0  0  0  0
 14 45  1  0  0  0  0
 14 46  1  0  0  0  0
 15 19  1  0  0  0  0
 15 47  1  0  0  0  0
 16 19  1  0  0  0  0
 16 48  1  0  0  0  0
 16 49  1  0  0  0  0
 17 22  1  0  0  0  0
 17 23  1  6  0  0  0
 17 50  1  0  0  0  0
 18 51  1  0  0  0  0
 18 52  1  0  0  0  0
 19 53  1  0  0  0  0
 19 54  1  0  0  0  0
 20 55  1  0  0  0  0
 20 56  1  0  0  0  0
 20 57  1  0  0  0  0
 21 24  2  0  0  0  0
 21 26  1  0  0  0  0
 22 24  1  0  0  0  0
 22 58  1  0  0  0  0
 22 59  1  0  0  0  0
 23 25  1  0  0  0  0
 23 60  1  0  0  0  0
 23 61  1  0  0  0  0
 24 27  1  0  0  0  0
 25 28  1  0  0  0  0
 25 63  1  0  0  0  0
 25 64  1  0  0  0  0
 26 29  2  0  0  0  0
 26 65  1  0  0  0  0
 27 30  2  0  0  0  0
 27 66  1  0  0  0  0
 28 31  1  0  0  0  0
 28 67  1  0  0  0  0
 28 68  1  0  0  0  0
 29 30  1  0  0  0  0
 29 69  1  0  0  0  0
 31 32  1  0  0  0  0
 31 70  1  0  0  0  0
 31 71  1  0  0  0  0
 32 33  1  0  0  0  0
 32 72  1  0  0  0  0
 32 73  1  0  0  0  0
 33 34  1  0  0  0  0
 33 75  1  0  0  0  0
 33 76  1  0  0  0  0
 34 35  1  0  0  0  0
 34 77  1  0  0  0  0
 34 78  1  0  0  0  0
 35 36  1  0  0  0  0
 35 79  1  0  0  0  0
 35 80  1  0  0  0  0
 36 81  1  0  0  0  0
 36 82  1  0  0  0  0
 37 38  1  0  0  0  0
 37 83  1  0  0  0  0
 37 84  1  0  0  0  0
 38 39  1  0  0  0  0
 38 85  1  0  0  0  0
 38 86  1  0  0  0  0
 39 40  1  0  0  0  0
 39 87  1  0  0  0  0
 39 88  1  0  0  0  0
 40 41  1  0  0  0  0
M  END
> <PUBCHEM_COMPOUND_CID>
104741

> <PUBCHEM_COMPOUND_CANONICALIZED>
1

> <PUBCHEM_CACTVS_COMPLEXITY>
854

> <PUBCHEM_CACTVS_HBOND_ACCEPTOR>
9

> <PUBCHEM_CACTVS_HBOND_DONOR>
2

> <PUBCHEM_CACTVS_ROTATABLE_BOND>
14

> <PUBCHEM_CACTVS_SUBSKEYS>
AAADcfB8McBAAAAAAAAAAAAAAAAAAYAAAAAwYMAAAAAAAGDBAAAAGwQACAAADxSk2BKyBoAAAgqAAiBCAEBCAAAgIBAIiAAGCIgINiKiERKAcAAkwBEomAeAwPAPoAABAAAQAADAAAYAACAAAIAADAAAAA==

> <PUBCHEM_IUPAC_OPENEYE_NAME>
(7R,8R,9S,13S,14S,17S)-13-methyl-7-[9-(4,4,5,5,5-pentafluoropentylsulfinyl)nonyl]-6,7,8,9,11,12,14,15,16,17-decahydrocyclopenta[a]phenanthrene-3,17-diol

> <PUBCHEM_IUPAC_CAS_NAME>
(7R,8R,9S,13S,14S,17S)-13-methyl-7-[9-(4,4,5,5,5-pentafluoropentylsulfinyl)nonyl]-6,7,8,9,11,12,14,15,16,17-decahydrocyclopenta[a]phenanthrene-3,17-diol

> <PUBCHEM_IUPAC_NAME>
(7R,8R,9S,13S,14S,17S)-13-methyl-7-[9-(4,4,5,5,5-pentafluoropentylsulfinyl)nonyl]-6,7,8,9,11,12,14,15,16,17-decahydrocyclopenta[a]phenanthrene-3,17-diol

> <PUBCHEM_IUPAC_SYSTEMATIC_NAME>
(7R,8R,9S,13S,14S,17S)-13-methyl-7-[9-[4,4,5,5,5-pentakis(fluoranyl)pentylsulfinyl]nonyl]-6,7,8,9,11,12,14,15,16,17-decahydrocyclopenta[a]phenanthrene-3,17-diol

> <PUBCHEM_IUPAC_TRADITIONAL_NAME>
(7R,8R,9S,13S,14S,17S)-13-methyl-7-[9-(4,4,5,5,5-pentafluoropentylsulfinyl)nonyl]-6,7,8,9,11,12,14,15,16,17-decahydrocyclopenta[a]phenanthrene-3,17-diol

> <PUBCHEM_IUPAC_INCHI>
InChI=1S/C32H47F5O3S/c1-30-17-15-26-25-12-11-24(38)21-23(25)20-22(29(26)27(30)13-14-28(30)39)10-7-5-3-2-4-6-8-18-41(40)19-9-16-31(33,34)32(35,36)37/h11-12,21-22,26-29,38-39H,2-10,13-20H2,1H3/t22-,26-,27+,28+,29-,30+,41?/m1/s1

> <PUBCHEM_IUPAC_INCHIKEY>
VWUXBMIQPBEWFH-WCCTWKNTSA-N

> <PUBCHEM_XLOGP3>
9.2

> <PUBCHEM_EXACT_MASS>
606.316607

> <PUBCHEM_MOLECULAR_FORMULA>
C32H47F5O3S

> <PUBCHEM_MOLECULAR_WEIGHT>
606.770796

> <PUBCHEM_OPENEYE_CAN_SMILES>
CC12CCC3C(C1CCC2O)C(CC4=C3C=CC(=C4)O)CCCCCCCCCS(=O)CCCC(C(F)(F)F)(F)F

> <PUBCHEM_OPENEYE_ISO_SMILES>
C[C@]12CC[C@H]3[C@H]([C@@H]1CC[C@@H]2O)[C@@H](CC4=C3C=CC(=C4)O)CCCCCCCCCS(=O)CCCC(C(F)(F)F)(F)F

> <PUBCHEM_CACTVS_TPSA>
76.7

> <PUBCHEM_MONOISOTOPIC_WEIGHT>
606.316607

> <PUBCHEM_TOTAL_CHARGE>
0

> <PUBCHEM_HEAVY_ATOM_COUNT>
41

> <PUBCHEM_ATOM_DEF_STEREO_COUNT>
6

> <PUBCHEM_ATOM_UDEF_STEREO_COUNT>
1

> <PUBCHEM_BOND_DEF_STEREO_COUNT>
0

> <PUBCHEM_BOND_UDEF_STEREO_COUNT>
0

> <PUBCHEM_ISOTOPIC_ATOM_COUNT>
0

> <PUBCHEM_COMPONENT_COUNT>
1

> <PUBCHEM_CACTVS_TAUTO_COUNT>
9

> <PUBCHEM_COORDINATE_TYPE>
1
5
255

> <PUBCHEM_BONDANNOTATIONS>
1  36  3
10  42  6
11  20  5
12  43  5
13  44  6
17  23  6
21  24  8
21  26  8
24  27  8
26  29  8
27  30  8
29  30  8
15  7  5

$$$$
