110634
  -OEChem-12171208222D

 66 69  0     0  0  0  0  0  0999 V2000
    6.3301   -0.5000    0.0000 S   0  0  0  0  0  0  0  0  0  0  0  0
    5.8301    0.3660    0.0000 O   0  0  0  0  0  0  0  0  0  0  0  0
    6.8301   -1.3660    0.0000 O   0  0  0  0  0  0  0  0  0  0  0  0
    9.7942    1.5000    0.0000 O   0  0  0  0  0  0  0  0  0  0  0  0
   10.6603   -3.0000    0.0000 O   0  0  0  0  0  0  0  0  0  0  0  0
    5.4641   -1.0000    0.0000 N   0  0  0  0  0  0  0  0  0  0  0  0
    3.7320   -2.0000    0.0000 N   0  0  0  0  0  0  0  0  0  0  0  0
   11.5263   -0.5000    0.0000 N   0  0  0  0  0  0  0  0  0  0  0  0
   10.6603    0.0000    0.0000 N   0  0  0  0  0  0  0  0  0  0  0  0
    9.7942   -1.5000    0.0000 N   0  0  0  0  0  0  0  0  0  0  0  0
   13.0561   -1.0000    0.0000 N   0  0  0  0  0  0  0  0  0  0  0  0
    4.5981   -0.5000    0.0000 C   0  0  0  0  0  0  0  0  0  0  0  0
    5.4641   -2.0000    0.0000 C   0  0  0  0  0  0  0  0  0  0  0  0
    3.7320   -1.0000    0.0000 C   0  0  0  0  0  0  0  0  0  0  0  0
    4.5981   -2.5000    0.0000 C   0  0  0  0  0  0  0  0  0  0  0  0
    2.8660   -2.5000    0.0000 C   0  0  0  0  0  0  0  0  0  0  0  0
    7.1962    0.0000    0.0000 C   0  0  0  0  0  0  0  0  0  0  0  0
    2.0000   -2.0000    0.0000 C   0  0  0  0  0  0  0  0  0  0  0  0
    8.0622   -0.5000    0.0000 C   0  0  0  0  0  0  0  0  0  0  0  0
    7.1962    1.0000    0.0000 C   0  0  0  0  0  0  0  0  0  0  0  0
    8.9282    0.0000    0.0000 C   0  0  0  0  0  0  0  0  0  0  0  0
    8.9282    1.0000    0.0000 C   0  0  0  0  0  0  0  0  0  0  0  0
    9.7942   -0.5000    0.0000 C   0  0  0  0  0  0  0  0  0  0  0  0
    8.0622    1.5000    0.0000 C   0  0  0  0  0  0  0  0  0  0  0  0
   12.4725   -0.1953    0.0000 C   0  0  0  0  0  0  0  0  0  0  0  0
   11.5263   -1.5000    0.0000 C   0  0  0  0  0  0  0  0  0  0  0  0
   12.7832    0.7553    0.0000 C   0  0  0  0  0  0  0  0  0  0  0  0
   12.4725   -1.8047    0.0000 C   0  0  0  0  0  0  0  0  0  0  0  0
   10.6603   -2.0000    0.0000 C   0  0  0  0  0  0  0  0  0  0  0  0
   13.7617    0.9615    0.0000 C   0  0  0  0  0  0  0  0  0  0  0  0
   12.7832   -2.7553    0.0000 C   0  0  0  0  0  0  0  0  0  0  0  0
   14.0723    1.9120    0.0000 C   0  0  0  0  0  0  0  0  0  0  0  0
    9.7942    2.5000    0.0000 C   0  0  0  0  0  0  0  0  0  0  0  0
   10.6603    3.0000    0.0000 C   0  0  0  0  0  0  0  0  0  0  0  0
    4.9966   -0.0251    0.0000 H   0  0  0  0  0  0  0  0  0  0  0  0
    4.1996   -0.0251    0.0000 H   0  0  0  0  0  0  0  0  0  0  0  0
    5.6762   -2.5826    0.0000 H   0  0  0  0  0  0  0  0  0  0  0  0
    6.0747   -1.8923    0.0000 H   0  0  0  0  0  0  0  0  0  0  0  0
    3.5200   -0.4174    0.0000 H   0  0  0  0  0  0  0  0  0  0  0  0
    3.1215   -1.1077    0.0000 H   0  0  0  0  0  0  0  0  0  0  0  0
    4.1996   -2.9750    0.0000 H   0  0  0  0  0  0  0  0  0  0  0  0
    4.9966   -2.9750    0.0000 H   0  0  0  0  0  0  0  0  0  0  0  0
    2.4675   -2.9750    0.0000 H   0  0  0  0  0  0  0  0  0  0  0  0
    3.2646   -2.9750    0.0000 H   0  0  0  0  0  0  0  0  0  0  0  0
    2.3100   -1.4631    0.0000 H   0  0  0  0  0  0  0  0  0  0  0  0
    1.4631   -1.6900    0.0000 H   0  0  0  0  0  0  0  0  0  0  0  0
    1.6900   -2.5369    0.0000 H   0  0  0  0  0  0  0  0  0  0  0  0
    8.0622   -1.1200    0.0000 H   0  0  0  0  0  0  0  0  0  0  0  0
    6.6592    1.3100    0.0000 H   0  0  0  0  0  0  0  0  0  0  0  0
    8.0622    2.1200    0.0000 H   0  0  0  0  0  0  0  0  0  0  0  0
   10.6603    0.6200    0.0000 H   0  0  0  0  0  0  0  0  0  0  0  0
   12.7626    1.3749    0.0000 H   0  0  0  0  0  0  0  0  0  0  0  0
   12.1693    0.8426    0.0000 H   0  0  0  0  0  0  0  0  0  0  0  0
   13.7822    0.3418    0.0000 H   0  0  0  0  0  0  0  0  0  0  0  0
   14.3755    0.8741    0.0000 H   0  0  0  0  0  0  0  0  0  0  0  0
   12.1938   -2.9479    0.0000 H   0  0  0  0  0  0  0  0  0  0  0  0
   12.9758   -3.3446    0.0000 H   0  0  0  0  0  0  0  0  0  0  0  0
   13.3725   -2.5626    0.0000 H   0  0  0  0  0  0  0  0  0  0  0  0
   14.6617    1.7194    0.0000 H   0  0  0  0  0  0  0  0  0  0  0  0
   14.2649    2.5013    0.0000 H   0  0  0  0  0  0  0  0  0  0  0  0
   13.4830    2.1046    0.0000 H   0  0  0  0  0  0  0  0  0  0  0  0
    9.5822    3.0826    0.0000 H   0  0  0  0  0  0  0  0  0  0  0  0
    9.1836    2.3923    0.0000 H   0  0  0  0  0  0  0  0  0  0  0  0
   10.9703    2.4631    0.0000 H   0  0  0  0  0  0  0  0  0  0  0  0
   11.1972    3.3100    0.0000 H   0  0  0  0  0  0  0  0  0  0  0  0
   10.3503    3.5369    0.0000 H   0  0  0  0  0  0  0  0  0  0  0  0
  1  2  2  0  0  0  0
  1  3  2  0  0  0  0
  1  6  1  0  0  0  0
  1 17  1  0  0  0  0
  4 22  1  0  0  0  0
  4 33  1  0  0  0  0
  5 29  2  0  0  0  0
  6 12  1  0  0  0  0
  6 13  1  0  0  0  0
  7 14  1  0  0  0  0
  7 15  1  0  0  0  0
  7 16  1  0  0  0  0
  8  9  1  0  0  0  0
  8 25  1  0  0  0  0
  8 26  1  0  0  0  0
  9 23  1  0  0  0  0
  9 51  1  0  0  0  0
 10 23  2  0  0  0  0
 10 29  1  0  0  0  0
 11 25  2  0  0  0  0
 11 28  1  0  0  0  0
 12 14  1  0  0  0  0
 12 35  1  0  0  0  0
 12 36  1  0  0  0  0
 13 15  1  0  0  0  0
 13 37  1  0  0  0  0
 13 38  1  0  0  0  0
 14 39  1  0  0  0  0
 14 40  1  0  0  0  0
 15 41  1  0  0  0  0
 15 42  1  0  0  0  0
 16 18  1  0  0  0  0
 16 43  1  0  0  0  0
 16 44  1  0  0  0  0
 17 19  2  0  0  0  0
 17 20  1  0  0  0  0
 18 45  1  0  0  0  0
 18 46  1  0  0  0  0
 18 47  1  0  0  0  0
 19 21  1  0  0  0  0
 19 48  1  0  0  0  0
 20 24  2  0  0  0  0
 20 49  1  0  0  0  0
 21 22  2  0  0  0  0
 21 23  1  0  0  0  0
 22 24  1  0  0  0  0
 24 50  1  0  0  0  0
 25 27  1  0  0  0  0
 26 28  2  0  0  0  0
 26 29  1  0  0  0  0
 27 30  1  0  0  0  0
 27 52  1  0  0  0  0
 27 53  1  0  0  0  0
 28 31  1  0  0  0  0
 30 32  1  0  0  0  0
 30 54  1  0  0  0  0
 30 55  1  0  0  0  0
 31 56  1  0  0  0  0
 31 57  1  0  0  0  0
 31 58  1  0  0  0  0
 32 59  1  0  0  0  0
 32 60  1  0  0  0  0
 32 61  1  0  0  0  0
 33 34  1  0  0  0  0
 33 62  1  0  0  0  0
 33 63  1  0  0  0  0
 34 64  1  0  0  0  0
 34 65  1  0  0  0  0
 34 66  1  0  0  0  0
M  END
> <PUBCHEM_COMPOUND_CID>
110634

> <PUBCHEM_COMPOUND_CANONICALIZED>
1

> <PUBCHEM_CACTVS_COMPLEXITY>
854

> <PUBCHEM_CACTVS_HBOND_ACCEPTOR>
7

> <PUBCHEM_CACTVS_HBOND_DONOR>
1

> <PUBCHEM_CACTVS_ROTATABLE_BOND>
8

> <PUBCHEM_CACTVS_SUBSKEYS>
AAADcfB7uABAAAAAAAAAAAAAAAAAAWAAAAA8QIAAAAAAAEABwAAAHgQYQAAADAzh3wYzl5dqFAKoAydydHDSjD0nMKAduBm+XNiMbrrE+TuWOaDuyBPIqWeQwCAOAIAAgAAIAAABAAEAABAAAAAAAAAAAA==

> <PUBCHEM_IUPAC_OPENEYE_NAME>
2-[2-ethoxy-5-(4-ethylpiperazin-1-yl)sulfonyl-phenyl]-5-methyl-7-propyl-1H-imidazo[5,1-f][1,2,4]triazin-4-one

> <PUBCHEM_IUPAC_CAS_NAME>
2-[2-ethoxy-5-[(4-ethyl-1-piperazinyl)sulfonyl]phenyl]-5-methyl-7-propyl-1H-imidazo[5,1-f][1,2,4]triazin-4-one

> <PUBCHEM_IUPAC_NAME>
2-[2-ethoxy-5-(4-ethylpiperazin-1-yl)sulfonylphenyl]-5-methyl-7-propyl-1H-imidazo[5,1-f][1,2,4]triazin-4-one

> <PUBCHEM_IUPAC_SYSTEMATIC_NAME>
2-[2-ethoxy-5-(4-ethylpiperazin-1-yl)sulfonyl-phenyl]-5-methyl-7-propyl-1H-imidazo[5,1-f][1,2,4]triazin-4-one

> <PUBCHEM_IUPAC_TRADITIONAL_NAME>
2-[2-ethoxy-5-(4-ethylpiperazino)sulfonyl-phenyl]-5-methyl-7-propyl-1H-imidazo[5,1-f][1,2,4]triazin-4-one

> <PUBCHEM_IUPAC_INCHI>
InChI=1S/C23H32N6O4S/c1-5-8-20-24-16(4)21-23(30)25-22(26-29(20)21)18-15-17(9-10-19(18)33-7-3)34(31,32)28-13-11-27(6-2)12-14-28/h9-10,15H,5-8,11-14H2,1-4H3,(H,25,26,30)

> <PUBCHEM_IUPAC_INCHIKEY>
SECKRCOLJRRGGV-UHFFFAOYSA-N

> <PUBCHEM_XLOGP3_AA>
2.5

> <PUBCHEM_EXACT_MASS>
488.220575

> <PUBCHEM_MOLECULAR_FORMULA>
C23H32N6O4S

> <PUBCHEM_MOLECULAR_WEIGHT>
488.60298

> <PUBCHEM_OPENEYE_CAN_SMILES>
CCCC1=NC(=C2N1NC(=NC2=O)C3=C(C=CC(=C3)S(=O)(=O)N4CCN(CC4)CC)OCC)C

> <PUBCHEM_OPENEYE_ISO_SMILES>
CCCC1=NC(=C2N1NC(=NC2=O)C3=C(C=CC(=C3)S(=O)(=O)N4CCN(CC4)CC)OCC)C

> <PUBCHEM_CACTVS_TPSA>
118

> <PUBCHEM_MONOISOTOPIC_WEIGHT>
488.220575

> <PUBCHEM_TOTAL_CHARGE>
0

> <PUBCHEM_HEAVY_ATOM_COUNT>
34

> <PUBCHEM_ATOM_DEF_STEREO_COUNT>
0

> <PUBCHEM_ATOM_UDEF_STEREO_COUNT>
0

> <PUBCHEM_BOND_DEF_STEREO_COUNT>
0

> <PUBCHEM_BOND_UDEF_STEREO_COUNT>
0

> <PUBCHEM_ISOTOPIC_ATOM_COUNT>
0

> <PUBCHEM_COMPONENT_COUNT>
1

> <PUBCHEM_CACTVS_TAUTO_COUNT>
21

> <PUBCHEM_COORDINATE_TYPE>
1
5
255

> <PUBCHEM_BONDANNOTATIONS>
10  23  8
10  29  8
11  25  8
11  28  8
17  19  8
17  20  8
19  21  8
20  24  8
21  22  8
22  24  8
26  28  8
26  29  8
8  25  8
8  26  8
8  9  8
9  23  8

$$$$
