130881
  -OEChem-12171208222D

 71 75  0     0  0  0  0  0  0999 V2000
    2.3644   -1.0698    0.0000 O   0  0  0  0  0  0  0  0  0  0  0  0
    5.5578    1.1116    0.0000 O   0  0  0  0  0  0  0  0  0  0  0  0
    3.8636    0.7515    0.0000 O   0  0  0  0  0  0  0  0  0  0  0  0
    7.0712    2.5509    0.0000 O   0  0  0  0  0  0  0  0  0  0  0  0
    6.9021    4.1601    0.0000 O   0  0  0  0  0  0  0  0  0  0  0  0
    8.5657    3.5215    0.0000 O   0  0  0  0  0  0  0  0  0  0  0  0
    5.9361   -0.9424    0.0000 N   0  0  0  0  0  0  0  0  0  0  0  0
    4.8535   -2.1449    0.0000 N   0  0  0  0  0  0  0  0  0  0  0  0
   10.3233   -0.3547    0.0000 N   0  0  0  0  0  0  0  0  0  0  0  0
   11.9413   -0.3547    0.0000 N   0  0  0  0  0  0  0  0  0  0  0  0
   10.6323    0.5964    0.0000 N   0  0  0  0  0  0  0  0  0  0  0  0
   11.6323    0.5964    0.0000 N   0  0  0  0  0  0  0  0  0  0  0  0
    3.3590   -1.1743    0.0000 C   0  0  0  0  0  0  0  0  0  0  0  0
    4.3535   -1.2788    0.0000 C   0  0  0  0  0  0  0  0  0  0  0  0
    5.0226   -0.5357    0.0000 C   0  0  0  0  0  0  0  0  0  0  0  0
    5.8316   -1.9370    0.0000 C   0  0  0  0  0  0  0  0  0  0  0  0
    6.8022   -0.4424    0.0000 C   0  0  0  0  0  0  0  0  0  0  0  0
    6.5748   -2.6061    0.0000 C   0  0  0  0  0  0  0  0  0  0  0  0
    3.2544   -2.1688    0.0000 C   0  0  0  0  0  0  0  0  0  0  0  0
    3.4635   -0.1798    0.0000 C   0  0  0  0  0  0  0  0  0  0  0  0
    7.6682   -0.9424    0.0000 C   0  0  0  0  0  0  0  0  0  0  0  0
    6.3668   -3.5842    0.0000 C   0  0  0  0  0  0  0  0  0  0  0  0
    4.8147    0.4424    0.0000 C   0  0  0  0  0  0  0  0  0  0  0  0
    7.6682   -1.9424    0.0000 C   0  0  0  0  0  0  0  0  0  0  0  0
    8.5342   -0.4424    0.0000 C   0  0  0  0  0  0  0  0  0  0  0  0
    7.1100   -4.2534    0.0000 C   0  0  0  0  0  0  0  0  0  0  0  0
    9.4002   -1.9424    0.0000 C   0  0  0  0  0  0  0  0  0  0  0  0
    8.5342   -2.4424    0.0000 C   0  0  0  0  0  0  0  0  0  0  0  0
    9.4002   -0.9424    0.0000 C   0  0  0  0  0  0  0  0  0  0  0  0
   10.2663   -2.4424    0.0000 C   0  0  0  0  0  0  0  0  0  0  0  0
    5.3499    2.0897    0.0000 C   0  0  0  0  0  0  0  0  0  0  0  0
   11.1323   -1.9424    0.0000 C   0  0  0  0  0  0  0  0  0  0  0  0
   10.2663   -3.4424    0.0000 C   0  0  0  0  0  0  0  0  0  0  0  0
    6.0931    2.7588    0.0000 C   0  0  0  0  0  0  0  0  0  0  0  0
   11.9983   -2.4424    0.0000 C   0  0  0  0  0  0  0  0  0  0  0  0
   11.1323   -3.9424    0.0000 C   0  0  0  0  0  0  0  0  0  0  0  0
   11.1323   -0.9424    0.0000 C   0  0  0  0  0  0  0  0  0  0  0  0
    5.9885    3.7534    0.0000 C   0  0  0  0  0  0  0  0  0  0  0  0
   11.9983   -3.4424    0.0000 C   0  0  0  0  0  0  0  0  0  0  0  0
    5.1225    4.2534    0.0000 C   0  0  0  0  0  0  0  0  0  0  0  0
    7.5712    3.4170    0.0000 C   0  0  0  0  0  0  0  0  0  0  0  0
    7.2007    0.0325    0.0000 H   0  0  0  0  0  0  0  0  0  0  0  0
    6.4036    0.0325    0.0000 H   0  0  0  0  0  0  0  0  0  0  0  0
    7.1496   -2.8384    0.0000 H   0  0  0  0  0  0  0  0  0  0  0  0
    6.9033   -2.0803    0.0000 H   0  0  0  0  0  0  0  0  0  0  0  0
    4.0801   -0.2446    0.0000 H   0  0  0  0  0  0  0  0  0  0  0  0
    3.5283    0.4368    0.0000 H   0  0  0  0  0  0  0  0  0  0  0  0
    2.8469   -0.1150    0.0000 H   0  0  0  0  0  0  0  0  0  0  0  0
    2.6378   -2.1040    0.0000 H   0  0  0  0  0  0  0  0  0  0  0  0
    3.1896   -2.7854    0.0000 H   0  0  0  0  0  0  0  0  0  0  0  0
    3.8710   -2.2336    0.0000 H   0  0  0  0  0  0  0  0  0  0  0  0
    5.7920   -3.3520    0.0000 H   0  0  0  0  0  0  0  0  0  0  0  0
    6.0383   -4.1100    0.0000 H   0  0  0  0  0  0  0  0  0  0  0  0
    2.0000   -1.5714    0.0000 H   0  0  0  0  0  0  0  0  0  0  0  0
    7.1313   -2.2524    0.0000 H   0  0  0  0  0  0  0  0  0  0  0  0
    8.5342    0.1776    0.0000 H   0  0  0  0  0  0  0  0  0  0  0  0
    6.6951   -4.7141    0.0000 H   0  0  0  0  0  0  0  0  0  0  0  0
    7.5708   -4.6682    0.0000 H   0  0  0  0  0  0  0  0  0  0  0  0
    7.5249   -3.7926    0.0000 H   0  0  0  0  0  0  0  0  0  0  0  0
    8.5342   -3.0624    0.0000 H   0  0  0  0  0  0  0  0  0  0  0  0
    9.9372   -0.6324    0.0000 H   0  0  0  0  0  0  0  0  0  0  0  0
    5.0214    2.6155    0.0000 H   0  0  0  0  0  0  0  0  0  0  0  0
    4.7751    1.8575    0.0000 H   0  0  0  0  0  0  0  0  0  0  0  0
    9.7293   -3.7524    0.0000 H   0  0  0  0  0  0  0  0  0  0  0  0
   12.5353   -2.1324    0.0000 H   0  0  0  0  0  0  0  0  0  0  0  0
   11.1323   -4.5624    0.0000 H   0  0  0  0  0  0  0  0  0  0  0  0
   12.5353   -3.7524    0.0000 H   0  0  0  0  0  0  0  0  0  0  0  0
    5.4325    4.7903    0.0000 H   0  0  0  0  0  0  0  0  0  0  0  0
    4.5856    4.5634    0.0000 H   0  0  0  0  0  0  0  0  0  0  0  0
    4.8125    3.7164    0.0000 H   0  0  0  0  0  0  0  0  0  0  0  0
   10.2679    1.0980    0.0000 H   0  0  0  0  0  0  0  0  0  0  0  0
  1 13  1  0  0  0  0
  1 54  1  0  0  0  0
  2 23  1  0  0  0  0
  2 31  1  0  0  0  0
  3 23  2  0  0  0  0
  4 34  1  0  0  0  0
  4 41  1  0  0  0  0
  5 38  1  0  0  0  0
  5 41  1  0  0  0  0
  6 41  2  0  0  0  0
  7 15  1  0  0  0  0
  7 16  1  0  0  0  0
  7 17  1  0  0  0  0
  8 14  1  0  0  0  0
  8 16  2  0  0  0  0
  9 11  1  0  0  0  0
  9 37  2  0  0  0  0
 10 12  2  0  0  0  0
 10 37  1  0  0  0  0
 11 12  1  0  0  0  0
 11 71  1  0  0  0  0
 13 14  1  0  0  0  0
 13 19  1  0  0  0  0
 13 20  1  0  0  0  0
 14 15  2  0  0  0  0
 15 23  1  0  0  0  0
 16 18  1  0  0  0  0
 17 21  1  0  0  0  0
 17 42  1  0  0  0  0
 17 43  1  0  0  0  0
 18 22  1  0  0  0  0
 18 44  1  0  0  0  0
 18 45  1  0  0  0  0
 19 49  1  0  0  0  0
 19 50  1  0  0  0  0
 19 51  1  0  0  0  0
 20 46  1  0  0  0  0
 20 47  1  0  0  0  0
 20 48  1  0  0  0  0
 21 24  2  0  0  0  0
 21 25  1  0  0  0  0
 22 26  1  0  0  0  0
 22 52  1  0  0  0  0
 22 53  1  0  0  0  0
 24 28  1  0  0  0  0
 24 55  1  0  0  0  0
 25 29  2  0  0  0  0
 25 56  1  0  0  0  0
 26 57  1  0  0  0  0
 26 58  1  0  0  0  0
 26 59  1  0  0  0  0
 27 28  2  0  0  0  0
 27 29  1  0  0  0  0
 27 30  1  0  0  0  0
 28 60  1  0  0  0  0
 29 61  1  0  0  0  0
 30 32  1  0  0  0  0
 30 33  2  0  0  0  0
 31 34  1  0  0  0  0
 31 62  1  0  0  0  0
 31 63  1  0  0  0  0
 32 35  2  0  0  0  0
 32 37  1  0  0  0  0
 33 36  1  0  0  0  0
 33 64  1  0  0  0  0
 34 38  2  0  0  0  0
 35 39  1  0  0  0  0
 35 65  1  0  0  0  0
 36 39  2  0  0  0  0
 36 66  1  0  0  0  0
 38 40  1  0  0  0  0
 39 67  1  0  0  0  0
 40 68  1  0  0  0  0
 40 69  1  0  0  0  0
 40 70  1  0  0  0  0
M  END
> <PUBCHEM_COMPOUND_CID>
130881

> <PUBCHEM_COMPOUND_CANONICALIZED>
1

> <PUBCHEM_CACTVS_COMPLEXITY>
969

> <PUBCHEM_CACTVS_HBOND_ACCEPTOR>
10

> <PUBCHEM_CACTVS_HBOND_DONOR>
2

> <PUBCHEM_CACTVS_ROTATABLE_BOND>
11

> <PUBCHEM_CACTVS_SUBSKEYS>
AAADceB7uAAAAAAAAAAAAAAAAAAAAWLEAAAwYAAAAAAAAAAB9AAAHgAYCAAADEzhnwYzmJcOFgCqAybybASCiC8nMKAd+CG4XNibbrrAuTm3cYhugALe+WfagMAOwAAAAAAQAACAAAAAACAAAAAAAAAAAA==

> <PUBCHEM_IUPAC_OPENEYE_NAME>
(5-methyl-2-oxo-1,3-dioxol-4-yl)methyl 5-(1-hydroxy-1-methyl-ethyl)-2-propyl-3-[[4-[2-(2H-tetrazol-5-yl)phenyl]phenyl]methyl]imidazole-4-carboxylate

> <PUBCHEM_IUPAC_CAS_NAME>
5-(2-hydroxypropan-2-yl)-2-propyl-3-[[4-[2-(2H-tetrazol-5-yl)phenyl]phenyl]methyl]-4-imidazolecarboxylic acid (5-methyl-2-oxo-1,3-dioxol-4-yl)methyl ester

> <PUBCHEM_IUPAC_NAME>
(5-methyl-2-oxo-1,3-dioxol-4-yl)methyl 5-(2-hydroxypropan-2-yl)-2-propyl-3-[[4-[2-(2H-tetrazol-5-yl)phenyl]phenyl]methyl]imidazole-4-carboxylate

> <PUBCHEM_IUPAC_SYSTEMATIC_NAME>
(5-methyl-2-oxidanylidene-1,3-dioxol-4-yl)methyl 5-(2-oxidanylpropan-2-yl)-2-propyl-3-[[4-[2-(2H-1,2,3,4-tetrazol-5-yl)phenyl]phenyl]methyl]imidazole-4-carboxylate

> <PUBCHEM_IUPAC_TRADITIONAL_NAME>
5-(1-hydroxy-1-methyl-ethyl)-2-propyl-3-[4-[2-(2H-tetrazol-5-yl)phenyl]benzyl]imidazole-4-carboxylic acid (2-keto-5-methyl-1,3-dioxol-4-yl)methyl ester

> <PUBCHEM_IUPAC_INCHI>
InChI=1S/C29H30N6O6/c1-5-8-23-30-25(29(3,4)38)24(27(36)39-16-22-17(2)40-28(37)41-22)35(23)15-18-11-13-19(14-12-18)20-9-6-7-10-21(20)26-31-33-34-32-26/h6-7,9-14,38H,5,8,15-16H2,1-4H3,(H,31,32,33,34)

> <PUBCHEM_IUPAC_INCHIKEY>
UQGKUQLKSCSZGY-UHFFFAOYSA-N

> <PUBCHEM_XLOGP3_AA>
3.8

> <PUBCHEM_EXACT_MASS>
558.222683

> <PUBCHEM_MOLECULAR_FORMULA>
C29H30N6O6

> <PUBCHEM_MOLECULAR_WEIGHT>
558.5851

> <PUBCHEM_OPENEYE_CAN_SMILES>
CCCC1=NC(=C(N1CC2=CC=C(C=C2)C3=CC=CC=C3C4=NNN=N4)C(=O)OCC5=C(OC(=O)O5)C)C(C)(C)O

> <PUBCHEM_OPENEYE_ISO_SMILES>
CCCC1=NC(=C(N1CC2=CC=C(C=C2)C3=CC=CC=C3C4=NNN=N4)C(=O)OCC5=C(OC(=O)O5)C)C(C)(C)O

> <PUBCHEM_CACTVS_TPSA>
154

> <PUBCHEM_MONOISOTOPIC_WEIGHT>
558.222683

> <PUBCHEM_TOTAL_CHARGE>
0

> <PUBCHEM_HEAVY_ATOM_COUNT>
41

> <PUBCHEM_ATOM_DEF_STEREO_COUNT>
0

> <PUBCHEM_ATOM_UDEF_STEREO_COUNT>
0

> <PUBCHEM_BOND_DEF_STEREO_COUNT>
0

> <PUBCHEM_BOND_UDEF_STEREO_COUNT>
0

> <PUBCHEM_ISOTOPIC_ATOM_COUNT>
0

> <PUBCHEM_COMPONENT_COUNT>
1

> <PUBCHEM_CACTVS_TAUTO_COUNT>
8

> <PUBCHEM_COORDINATE_TYPE>
1
5
255

> <PUBCHEM_BONDANNOTATIONS>
10  12  8
10  37  8
11  12  8
14  15  8
21  24  8
21  25  8
24  28  8
25  29  8
27  28  8
27  29  8
30  32  8
30  33  8
32  35  8
33  36  8
34  38  8
35  39  8
36  39  8
4  34  8
4  41  8
5  38  8
5  41  8
7  15  8
7  16  8
8  14  8
8  16  8
9  11  8
9  37  8

$$$$
