148192
  -OEChem-12171208232D

103105  0     1  0  0  0  0  0999 V2000
    6.3301   -1.5000    0.0000 O   0  0  0  0  0  0  0  0  0  0  0  0
    5.4641   -2.0000    0.0000 O   0  0  0  0  0  0  0  0  0  0  0  0
    9.7942   -1.5000    0.0000 O   0  0  0  0  0  0  0  0  0  0  0  0
    2.8660   -4.5000    0.0000 O   0  0  0  0  0  0  0  0  0  0  0  0
    7.1962   -5.0000    0.0000 O   0  0  0  0  0  0  0  0  0  0  0  0
    2.0000   -3.0000    0.0000 O   0  0  0  0  0  0  0  0  0  0  0  0
    8.9282   -5.0000    0.0000 O   0  0  0  0  0  0  0  0  0  0  0  0
    4.5981   -0.5000    0.0000 N   0  0  0  0  0  0  0  0  0  0  0  0
    8.0622   -0.5000    0.0000 N   0  0  3  0  0  0  0  0  0  0  0  0
    3.7320   -3.0000    0.0000 N   0  0  0  0  0  0  0  0  0  0  0  0
    8.0622   -1.5000    0.0000 N   0  0  0  0  0  0  0  0  0  0  0  0
    8.0622   -3.5000    0.0000 N   0  0  0  0  0  0  0  0  0  0  0  0
    8.0622    4.5000    0.0000 N   0  0  0  0  0  0  0  0  0  0  0  0
    2.8660   -1.5000    0.0000 C   0  0  0  0  0  0  0  0  0  0  0  0
    5.4641    0.0000    0.0000 C   0  0  2  0  0  0  0  0  0  0  0  0
    3.7320   -2.0000    0.0000 C   0  0  1  0  0  0  0  0  0  0  0  0
    6.3301   -0.5000    0.0000 C   0  0  2  0  0  0  0  0  0  0  0  0
    9.7942   -3.5000    0.0000 C   0  0  0  0  0  0  0  0  0  0  0  0
    7.1962    0.0000    0.0000 C   0  0  0  0  0  0  0  0  0  0  0  0
    8.9282   -3.0000    0.0000 C   0  0  1  0  0  0  0  0  0  0  0  0
    5.4641    1.0000    0.0000 C   0  0  0  0  0  0  0  0  0  0  0  0
    4.5981   -1.5000    0.0000 C   0  0  0  0  0  0  0  0  0  0  0  0
    2.0000   -1.0000    0.0000 C   0  0  0  0  0  0  0  0  0  0  0  0
    2.3660   -2.3660    0.0000 C   0  0  0  0  0  0  0  0  0  0  0  0
    3.3660   -0.6340    0.0000 C   0  0  0  0  0  0  0  0  0  0  0  0
    8.9282   -2.0000    0.0000 C   0  0  0  0  0  0  0  0  0  0  0  0
   10.6603   -4.0000    0.0000 C   0  0  0  0  0  0  0  0  0  0  0  0
    9.2942   -4.3660    0.0000 C   0  0  0  0  0  0  0  0  0  0  0  0
   10.2942   -2.6340    0.0000 C   0  0  0  0  0  0  0  0  0  0  0  0
    8.9282    0.0000    0.0000 C   0  0  0  0  0  0  0  0  0  0  0  0
    4.5981    1.5000    0.0000 C   0  0  0  0  0  0  0  0  0  0  0  0
    8.9282    1.0000    0.0000 C   0  0  0  0  0  0  0  0  0  0  0  0
    2.8660   -3.5000    0.0000 C   0  0  0  0  0  0  0  0  0  0  0  0
    4.5981    2.5000    0.0000 C   0  0  0  0  0  0  0  0  0  0  0  0
    3.7320    1.0000    0.0000 C   0  0  0  0  0  0  0  0  0  0  0  0
    8.0622   -4.5000    0.0000 C   0  0  0  0  0  0  0  0  0  0  0  0
    9.7942    1.5000    0.0000 C   0  0  0  0  0  0  0  0  0  0  0  0
    8.0622    1.5000    0.0000 C   0  0  0  0  0  0  0  0  0  0  0  0
    3.7320    3.0000    0.0000 C   0  0  0  0  0  0  0  0  0  0  0  0
    2.8660    1.5000    0.0000 C   0  0  0  0  0  0  0  0  0  0  0  0
    2.8660    2.5000    0.0000 C   0  0  0  0  0  0  0  0  0  0  0  0
    9.7942    2.5000    0.0000 C   0  0  0  0  0  0  0  0  0  0  0  0
    8.0622    2.5000    0.0000 C   0  0  0  0  0  0  0  0  0  0  0  0
    8.9282    3.0000    0.0000 C   0  0  0  0  0  0  0  0  0  0  0  0
    2.0000   -5.0000    0.0000 C   0  0  0  0  0  0  0  0  0  0  0  0
    8.9282    4.0000    0.0000 C   0  0  0  0  0  0  0  0  0  0  0  0
    7.1962   -6.0000    0.0000 C   0  0  0  0  0  0  0  0  0  0  0  0
    9.7942    4.5000    0.0000 C   0  0  0  0  0  0  0  0  0  0  0  0
    9.7942    5.5000    0.0000 C   0  0  0  0  0  0  0  0  0  0  0  0
    8.0622    5.5000    0.0000 C   0  0  0  0  0  0  0  0  0  0  0  0
    8.9282    6.0000    0.0000 C   0  0  0  0  0  0  0  0  0  0  0  0
    5.4641   -0.6200    0.0000 H   0  0  0  0  0  0  0  0  0  0  0  0
    4.2690   -2.3100    0.0000 H   0  0  0  0  0  0  0  0  0  0  0  0
    6.8671   -0.8100    0.0000 H   0  0  0  0  0  0  0  0  0  0  0  0
    7.5947    0.4749    0.0000 H   0  0  0  0  0  0  0  0  0  0  0  0
    6.7976    0.4749    0.0000 H   0  0  0  0  0  0  0  0  0  0  0  0
    8.9282   -3.6200    0.0000 H   0  0  0  0  0  0  0  0  0  0  0  0
    6.0747    0.8923    0.0000 H   0  0  0  0  0  0  0  0  0  0  0  0
    5.6762    1.5826    0.0000 H   0  0  0  0  0  0  0  0  0  0  0  0
    4.0611   -0.1900    0.0000 H   0  0  0  0  0  0  0  0  0  0  0  0
    2.3100   -0.4631    0.0000 H   0  0  0  0  0  0  0  0  0  0  0  0
    1.4631   -0.6900    0.0000 H   0  0  0  0  0  0  0  0  0  0  0  0
    1.6900   -1.5369    0.0000 H   0  0  0  0  0  0  0  0  0  0  0  0
    1.8291   -2.0560    0.0000 H   0  0  0  0  0  0  0  0  0  0  0  0
    2.0560   -2.9030    0.0000 H   0  0  0  0  0  0  0  0  0  0  0  0
    2.9030   -2.6760    0.0000 H   0  0  0  0  0  0  0  0  0  0  0  0
    3.9030   -0.9440    0.0000 H   0  0  0  0  0  0  0  0  0  0  0  0
    3.6760   -0.0970    0.0000 H   0  0  0  0  0  0  0  0  0  0  0  0
    2.8291   -0.3240    0.0000 H   0  0  0  0  0  0  0  0  0  0  0  0
    4.2690   -3.3100    0.0000 H   0  0  0  0  0  0  0  0  0  0  0  0
   10.3503   -4.5369    0.0000 H   0  0  0  0  0  0  0  0  0  0  0  0
   11.1972   -4.3100    0.0000 H   0  0  0  0  0  0  0  0  0  0  0  0
   10.9703   -3.4631    0.0000 H   0  0  0  0  0  0  0  0  0  0  0  0
    8.7573   -4.0560    0.0000 H   0  0  0  0  0  0  0  0  0  0  0  0
    8.9842   -4.9030    0.0000 H   0  0  0  0  0  0  0  0  0  0  0  0
    9.8312   -4.6760    0.0000 H   0  0  0  0  0  0  0  0  0  0  0  0
   10.8312   -2.9440    0.0000 H   0  0  0  0  0  0  0  0  0  0  0  0
   10.6042   -2.0970    0.0000 H   0  0  0  0  0  0  0  0  0  0  0  0
    9.7573   -2.3240    0.0000 H   0  0  0  0  0  0  0  0  0  0  0  0
    7.5252   -1.8100    0.0000 H   0  0  0  0  0  0  0  0  0  0  0  0
    9.1403   -0.5826    0.0000 H   0  0  0  0  0  0  0  0  0  0  0  0
    9.5388    0.1077    0.0000 H   0  0  0  0  0  0  0  0  0  0  0  0
    7.5252   -3.1900    0.0000 H   0  0  0  0  0  0  0  0  0  0  0  0
    6.8671   -1.8100    0.0000 H   0  0  0  0  0  0  0  0  0  0  0  0
    5.1350    2.8100    0.0000 H   0  0  0  0  0  0  0  0  0  0  0  0
    3.7320    0.3800    0.0000 H   0  0  0  0  0  0  0  0  0  0  0  0
   10.3312    1.1900    0.0000 H   0  0  0  0  0  0  0  0  0  0  0  0
    7.5252    1.1900    0.0000 H   0  0  0  0  0  0  0  0  0  0  0  0
    3.7320    3.6200    0.0000 H   0  0  0  0  0  0  0  0  0  0  0  0
    2.3291    1.1900    0.0000 H   0  0  0  0  0  0  0  0  0  0  0  0
    2.3291    2.8100    0.0000 H   0  0  0  0  0  0  0  0  0  0  0  0
   10.3312    2.8100    0.0000 H   0  0  0  0  0  0  0  0  0  0  0  0
    7.5252    2.8100    0.0000 H   0  0  0  0  0  0  0  0  0  0  0  0
    1.6900   -4.4631    0.0000 H   0  0  0  0  0  0  0  0  0  0  0  0
    1.4631   -5.3100    0.0000 H   0  0  0  0  0  0  0  0  0  0  0  0
    2.3100   -5.5369    0.0000 H   0  0  0  0  0  0  0  0  0  0  0  0
    6.5762   -6.0000    0.0000 H   0  0  0  0  0  0  0  0  0  0  0  0
    7.1962   -6.6200    0.0000 H   0  0  0  0  0  0  0  0  0  0  0  0
    7.8162   -6.0000    0.0000 H   0  0  0  0  0  0  0  0  0  0  0  0
   10.3312    4.1900    0.0000 H   0  0  0  0  0  0  0  0  0  0  0  0
   10.3312    5.8100    0.0000 H   0  0  0  0  0  0  0  0  0  0  0  0
    7.5252    5.8100    0.0000 H   0  0  0  0  0  0  0  0  0  0  0  0
    8.9282    6.6200    0.0000 H   0  0  0  0  0  0  0  0  0  0  0  0
 17  1  1  6  0  0  0
  1 84  1  0  0  0  0
  2 22  2  0  0  0  0
  3 26  2  0  0  0  0
  4 33  1  0  0  0  0
  4 45  1  0  0  0  0
  5 36  1  0  0  0  0
  5 47  1  0  0  0  0
  6 33  2  0  0  0  0
  7 36  2  0  0  0  0
 15  8  1  1  0  0  0
  8 22  1  0  0  0  0
  8 60  1  0  0  0  0
  9 11  1  0  0  0  0
  9 19  1  0  0  0  0
  9 30  1  0  0  0  0
 16 10  1  1  0  0  0
 10 33  1  0  0  0  0
 10 70  1  0  0  0  0
 11 26  1  0  0  0  0
 11 80  1  0  0  0  0
 20 12  1  6  0  0  0
 12 36  1  0  0  0  0
 12 83  1  0  0  0  0
 13 46  1  0  0  0  0
 13 50  2  0  0  0  0
 14 16  1  0  0  0  0
 14 23  1  0  0  0  0
 14 24  1  0  0  0  0
 14 25  1  0  0  0  0
 15 17  1  0  0  0  0
 15 21  1  0  0  0  0
 15 52  1  0  0  0  0
 16 22  1  0  0  0  0
 16 53  1  0  0  0  0
 17 19  1  0  0  0  0
 17 54  1  0  0  0  0
 18 20  1  0  0  0  0
 18 27  1  0  0  0  0
 18 28  1  0  0  0  0
 18 29  1  0  0  0  0
 19 55  1  0  0  0  0
 19 56  1  0  0  0  0
 20 26  1  0  0  0  0
 20 57  1  0  0  0  0
 21 31  1  0  0  0  0
 21 58  1  0  0  0  0
 21 59  1  0  0  0  0
 23 61  1  0  0  0  0
 23 62  1  0  0  0  0
 23 63  1  0  0  0  0
 24 64  1  0  0  0  0
 24 65  1  0  0  0  0
 24 66  1  0  0  0  0
 25 67  1  0  0  0  0
 25 68  1  0  0  0  0
 25 69  1  0  0  0  0
 27 71  1  0  0  0  0
 27 72  1  0  0  0  0
 27 73  1  0  0  0  0
 28 74  1  0  0  0  0
 28 75  1  0  0  0  0
 28 76  1  0  0  0  0
 29 77  1  0  0  0  0
 29 78  1  0  0  0  0
 29 79  1  0  0  0  0
 30 32  1  0  0  0  0
 30 81  1  0  0  0  0
 30 82  1  0  0  0  0
 31 34  2  0  0  0  0
 31 35  1  0  0  0  0
 32 37  2  0  0  0  0
 32 38  1  0  0  0  0
 34 39  1  0  0  0  0
 34 85  1  0  0  0  0
 35 40  2  0  0  0  0
 35 86  1  0  0  0  0
 37 42  1  0  0  0  0
 37 87  1  0  0  0  0
 38 43  2  0  0  0  0
 38 88  1  0  0  0  0
 39 41  2  0  0  0  0
 39 89  1  0  0  0  0
 40 41  1  0  0  0  0
 40 90  1  0  0  0  0
 41 91  1  0  0  0  0
 42 44  2  0  0  0  0
 42 92  1  0  0  0  0
 43 44  1  0  0  0  0
 43 93  1  0  0  0  0
 44 46  1  0  0  0  0
 45 94  1  0  0  0  0
 45 95  1  0  0  0  0
 45 96  1  0  0  0  0
 46 48  2  0  0  0  0
 47 97  1  0  0  0  0
 47 98  1  0  0  0  0
 47 99  1  0  0  0  0
 48 49  1  0  0  0  0
 48100  1  0  0  0  0
 49 51  2  0  0  0  0
 49101  1  0  0  0  0
 50 51  1  0  0  0  0
 50102  1  0  0  0  0
 51103  1  0  0  0  0
M  END
> <PUBCHEM_COMPOUND_CID>
148192

> <PUBCHEM_COMPOUND_CANONICALIZED>
1

> <PUBCHEM_CACTVS_COMPLEXITY>
1110

> <PUBCHEM_CACTVS_HBOND_ACCEPTOR>
9

> <PUBCHEM_CACTVS_HBOND_DONOR>
5

> <PUBCHEM_CACTVS_ROTATABLE_BOND>
18

> <PUBCHEM_CACTVS_SUBSKEYS>
AAADcfB/uAAAAAAAAAAAAAAAAAAAAAAAAAA8YIAAAAAAAAAB0AAAHgAYCAAADjzhngY+iJLqFgCoAzV3XACCgCAxAiAa+KG4ZJkKcPLA0bGUYAhklgDYyAeQwOAPQAAAAAAAAACAAAAAAAAAAAAAAAAAAA==

> <PUBCHEM_IUPAC_OPENEYE_NAME>
methyl N-[(1S)-1-[[(1S,2S)-1-benzyl-2-hydroxy-3-[[[(2S)-2-(methoxycarbonylamino)-3,3-dimethyl-butanoyl]amino]-[[4-(2-pyridyl)phenyl]methyl]amino]propyl]carbamoyl]-2,2-dimethyl-propyl]carbamate

> <PUBCHEM_IUPAC_CAS_NAME>
N-[(2S)-1-[2-[(2S,3S)-2-hydroxy-3-[[(2S)-2-(methoxycarbonylamino)-3,3-dimethyl-1-oxobutyl]amino]-4-phenylbutyl]-2-[[4-(2-pyridinyl)phenyl]methyl]hydrazinyl]-3,3-dimethyl-1-oxobutan-2-yl]carbamic acid methyl ester

> <PUBCHEM_IUPAC_NAME>
methyl N-[(2S)-1-[2-[(2S,3S)-2-hydroxy-3-[[(2S)-2-(methoxycarbonylamino)-3,3-dimethylbutanoyl]amino]-4-phenylbutyl]-2-[(4-pyridin-2-ylphenyl)methyl]hydrazinyl]-3,3-dimethyl-1-oxobutan-2-yl]carbamate

> <PUBCHEM_IUPAC_SYSTEMATIC_NAME>
methyl N-[(2S)-1-[2-[(2S,3S)-3-[[(2S)-2-(methoxycarbonylamino)-3,3-dimethyl-butanoyl]amino]-2-oxidanyl-4-phenyl-butyl]-2-[(4-pyridin-2-ylphenyl)methyl]hydrazinyl]-3,3-dimethyl-1-oxidanylidene-butan-2-yl]carbamate

> <PUBCHEM_IUPAC_TRADITIONAL_NAME>
N-[(1S)-1-[[(1S,2S)-1-benzyl-3-[[[(2S)-2-(carbomethoxyamino)-3,3-dimethyl-butanoyl]amino]-[4-(2-pyridyl)benzyl]amino]-2-hydroxy-propyl]carbamoyl]-2,2-dimethyl-propyl]carbamic acid methyl ester

> <PUBCHEM_IUPAC_INCHI>
InChI=1S/C38H52N6O7/c1-37(2,3)31(41-35(48)50-7)33(46)40-29(22-25-14-10-9-11-15-25)30(45)24-44(43-34(47)32(38(4,5)6)42-36(49)51-8)23-26-17-19-27(20-18-26)28-16-12-13-21-39-28/h9-21,29-32,45H,22-24H2,1-8H3,(H,40,46)(H,41,48)(H,42,49)(H,43,47)/t29-,30-,31+,32+/m0/s1

> <PUBCHEM_IUPAC_INCHIKEY>
AXRYRYVKAWYZBR-GASGPIRDSA-N

> <PUBCHEM_XLOGP3_AA>
5.6

> <PUBCHEM_EXACT_MASS>
704.389748

> <PUBCHEM_MOLECULAR_FORMULA>
C38H52N6O7

> <PUBCHEM_MOLECULAR_WEIGHT>
704.85548

> <PUBCHEM_OPENEYE_CAN_SMILES>
CC(C)(C)C(C(=O)NC(CC1=CC=CC=C1)C(CN(CC2=CC=C(C=C2)C3=CC=CC=N3)NC(=O)C(C(C)(C)C)NC(=O)OC)O)NC(=O)OC

> <PUBCHEM_OPENEYE_ISO_SMILES>
CC(C)(C)[C@@H](C(=O)N[C@@H](CC1=CC=CC=C1)[C@H](CN(CC2=CC=C(C=C2)C3=CC=CC=N3)NC(=O)[C@H](C(C)(C)C)NC(=O)OC)O)NC(=O)OC

> <PUBCHEM_CACTVS_TPSA>
171

> <PUBCHEM_MONOISOTOPIC_WEIGHT>
704.389748

> <PUBCHEM_TOTAL_CHARGE>
0

> <PUBCHEM_HEAVY_ATOM_COUNT>
51

> <PUBCHEM_ATOM_DEF_STEREO_COUNT>
4

> <PUBCHEM_ATOM_UDEF_STEREO_COUNT>
0

> <PUBCHEM_BOND_DEF_STEREO_COUNT>
0

> <PUBCHEM_BOND_UDEF_STEREO_COUNT>
0

> <PUBCHEM_ISOTOPIC_ATOM_COUNT>
0

> <PUBCHEM_COMPONENT_COUNT>
1

> <PUBCHEM_CACTVS_TAUTO_COUNT>
16

> <PUBCHEM_COORDINATE_TYPE>
1
5
255

> <PUBCHEM_BONDANNOTATIONS>
17  1  6
16  10  5
20  12  6
13  46  8
13  50  8
31  34  8
31  35  8
32  37  8
32  38  8
34  39  8
35  40  8
37  42  8
38  43  8
39  41  8
40  41  8
42  44  8
43  44  8
46  48  8
48  49  8
49  51  8
50  51  8
15  8  5

$$$$
