152945
  -OEChem-12171208232D

 67 71  0     1  0  0  0  0  0999 V2000
   12.2533    0.1910    0.0000 F   0  0  0  0  0  0  0  0  0  0  0  0
   12.3298    1.6031    0.0000 F   0  0  0  0  0  0  0  0  0  0  0  0
   10.8412    0.2674    0.0000 F   0  0  0  0  0  0  0  0  0  0  0  0
    8.2463    4.6568    0.0000 F   0  0  0  0  0  0  0  0  0  0  0  0
    9.6584    4.5803    0.0000 F   0  0  0  0  0  0  0  0  0  0  0  0
    8.1698    3.2446    0.0000 F   0  0  0  0  0  0  0  0  0  0  0  0
    7.9821    1.0609    0.0000 O   0  0  0  0  0  0  0  0  0  0  0  0
    2.0000   -3.9910    0.0000 O   0  0  0  0  0  0  0  0  0  0  0  0
    3.8076   -4.0368    0.0000 N   0  0  0  0  0  0  0  0  0  0  0  0
    9.6285    0.5228    0.0000 N   0  0  0  0  0  0  0  0  0  0  0  0
    7.3931   -1.9386    0.0000 C   0  0  2  0  0  0  0  0  0  0  0  0
    7.3931   -0.9386    0.0000 C   0  0  2  0  0  0  0  0  0  0  0  0
    6.5271   -2.4386    0.0000 C   0  0  1  0  0  0  0  0  0  0  0  0
    5.6610   -1.9386    0.0000 C   0  0  3  0  0  0  0  0  0  0  0  0
    4.7510   -2.4455    0.0000 C   0  0  1  0  0  0  0  0  0  0  0  0
    6.5271   -0.4386    0.0000 C   0  0  0  0  0  0  0  0  0  0  0  0
    8.3393   -0.6339    0.0000 C   0  0  2  0  0  0  0  0  0  0  0  0
    5.6610   -0.9386    0.0000 C   0  0  0  0  0  0  0  0  0  0  0  0
    8.3393   -2.2434    0.0000 C   0  0  0  0  0  0  0  0  0  0  0  0
    6.5431   -3.4801    0.0000 C   0  0  0  0  0  0  0  0  0  0  0  0
    8.9229   -1.4386    0.0000 C   0  0  0  0  0  0  0  0  0  0  0  0
    4.7430   -3.4871    0.0000 C   0  0  1  0  0  0  0  0  0  0  0  0
    5.6451   -4.0079    0.0000 C   0  0  0  0  0  0  0  0  0  0  0  0
    7.3931    0.0614    0.0000 C   0  0  0  0  0  0  0  0  0  0  0  0
    4.7587   -1.4455    0.0000 C   0  0  0  0  0  0  0  0  0  0  0  0
    3.8242   -1.8814    0.0000 C   0  0  0  0  0  0  0  0  0  0  0  0
    8.6500    0.3166    0.0000 C   0  0  0  0  0  0  0  0  0  0  0  0
    2.8763   -2.4093    0.0000 C   0  0  0  0  0  0  0  0  0  0  0  0
    2.8680   -3.4943    0.0000 C   0  0  0  0  0  0  0  0  0  0  0  0
    9.9391    1.4734    0.0000 C   0  0  0  0  0  0  0  0  0  0  0  0
   10.9176    1.6796    0.0000 C   0  0  0  0  0  0  0  0  0  0  0  0
    9.2713    2.2177    0.0000 C   0  0  0  0  0  0  0  0  0  0  0  0
    9.5820    3.1682    0.0000 C   0  0  0  0  0  0  0  0  0  0  0  0
   11.2283    2.6301    0.0000 C   0  0  0  0  0  0  0  0  0  0  0  0
   11.5855    0.9353    0.0000 C   0  0  0  0  0  0  0  0  0  0  0  0
   10.5605    3.3744    0.0000 C   0  0  0  0  0  0  0  0  0  0  0  0
    8.9141    3.9125    0.0000 C   0  0  0  0  0  0  0  0  0  0  0  0
    7.4830   -2.7838    0.0000 H   0  0  0  0  0  0  0  0  0  0  0  0
    7.2664   -2.8579    0.0000 H   0  0  0  0  0  0  0  0  0  0  0  0
    6.3972   -1.5136    0.0000 H   0  0  0  0  0  0  0  0  0  0  0  0
    6.9256    0.0363    0.0000 H   0  0  0  0  0  0  0  0  0  0  0  0
    6.1285    0.0363    0.0000 H   0  0  0  0  0  0  0  0  0  0  0  0
    7.9018   -0.1945    0.0000 H   0  0  0  0  0  0  0  0  0  0  0  0
    5.4490   -0.3560    0.0000 H   0  0  0  0  0  0  0  0  0  0  0  0
    5.0504   -1.0463    0.0000 H   0  0  0  0  0  0  0  0  0  0  0  0
    8.0883   -2.8103    0.0000 H   0  0  0  0  0  0  0  0  0  0  0  0
    8.8767   -2.5526    0.0000 H   0  0  0  0  0  0  0  0  0  0  0  0
    6.7612   -4.0605    0.0000 H   0  0  0  0  0  0  0  0  0  0  0  0
    7.1523   -3.3646    0.0000 H   0  0  0  0  0  0  0  0  0  0  0  0
    9.3838   -1.8534    0.0000 H   0  0  0  0  0  0  0  0  0  0  0  0
    9.3838   -1.0239    0.0000 H   0  0  0  0  0  0  0  0  0  0  0  0
    4.7463   -4.3371    0.0000 H   0  0  0  0  0  0  0  0  0  0  0  0
    5.2478   -4.4839    0.0000 H   0  0  0  0  0  0  0  0  0  0  0  0
    6.0460   -4.4808    0.0000 H   0  0  0  0  0  0  0  0  0  0  0  0
    8.0131    0.0614    0.0000 H   0  0  0  0  0  0  0  0  0  0  0  0
    7.3931    0.6814    0.0000 H   0  0  0  0  0  0  0  0  0  0  0  0
    6.7731    0.0614    0.0000 H   0  0  0  0  0  0  0  0  0  0  0  0
    5.3787   -1.4503    0.0000 H   0  0  0  0  0  0  0  0  0  0  0  0
    4.7635   -0.8255    0.0000 H   0  0  0  0  0  0  0  0  0  0  0  0
    4.1388   -1.4407    0.0000 H   0  0  0  0  0  0  0  0  0  0  0  0
    3.8361   -1.2615    0.0000 H   0  0  0  0  0  0  0  0  0  0  0  0
    3.8100   -4.6568    0.0000 H   0  0  0  0  0  0  0  0  0  0  0  0
    2.3430   -2.0932    0.0000 H   0  0  0  0  0  0  0  0  0  0  0  0
   10.0425    0.0614    0.0000 H   0  0  0  0  0  0  0  0  0  0  0  0
    8.6646    2.0898    0.0000 H   0  0  0  0  0  0  0  0  0  0  0  0
   11.8350    2.7580    0.0000 H   0  0  0  0  0  0  0  0  0  0  0  0
   10.7531    3.9637    0.0000 H   0  0  0  0  0  0  0  0  0  0  0  0
  1 35  1  0  0  0  0
  2 35  1  0  0  0  0
  3 35  1  0  0  0  0
  4 37  1  0  0  0  0
  5 37  1  0  0  0  0
  6 37  1  0  0  0  0
  7 27  2  0  0  0  0
  8 29  2  0  0  0  0
  9 22  1  0  0  0  0
  9 29  1  0  0  0  0
  9 62  1  0  0  0  0
 10 27  1  0  0  0  0
 10 30  1  0  0  0  0
 10 64  1  0  0  0  0
 11 12  1  0  0  0  0
 11 13  1  0  0  0  0
 11 19  1  0  0  0  0
 11 38  1  6  0  0  0
 12 16  1  0  0  0  0
 12 17  1  0  0  0  0
 12 24  1  1  0  0  0
 13 14  1  0  0  0  0
 13 20  1  0  0  0  0
 13 39  1  1  0  0  0
 14 15  1  0  0  0  0
 14 18  1  0  0  0  0
 14 40  1  0  0  0  0
 15 22  1  0  0  0  0
 15 25  1  1  0  0  0
 15 26  1  0  0  0  0
 16 18  1  0  0  0  0
 16 41  1  0  0  0  0
 16 42  1  0  0  0  0
 17 21  1  0  0  0  0
 17 27  1  1  0  0  0
 17 43  1  0  0  0  0
 18 44  1  0  0  0  0
 18 45  1  0  0  0  0
 19 21  1  0  0  0  0
 19 46  1  0  0  0  0
 19 47  1  0  0  0  0
 20 23  1  0  0  0  0
 20 48  1  0  0  0  0
 20 49  1  0  0  0  0
 21 50  1  0  0  0  0
 21 51  1  0  0  0  0
 22 23  1  0  0  0  0
 22 52  1  6  0  0  0
 23 53  1  0  0  0  0
 23 54  1  0  0  0  0
 24 55  1  0  0  0  0
 24 56  1  0  0  0  0
 24 57  1  0  0  0  0
 25 58  1  0  0  0  0
 25 59  1  0  0  0  0
 25 60  1  0  0  0  0
 26 28  2  0  0  0  0
 26 61  1  0  0  0  0
 28 29  1  0  0  0  0
 28 63  1  0  0  0  0
 30 31  2  0  0  0  0
 30 32  1  0  0  0  0
 31 34  1  0  0  0  0
 31 35  1  0  0  0  0
 32 33  2  0  0  0  0
 32 65  1  0  0  0  0
 33 36  1  0  0  0  0
 33 37  1  0  0  0  0
 34 36  2  0  0  0  0
 34 66  1  0  0  0  0
 36 67  1  0  0  0  0
M  END
> <PUBCHEM_COMPOUND_CID>
152945

> <PUBCHEM_COMPOUND_CANONICALIZED>
1

> <PUBCHEM_CACTVS_COMPLEXITY>
964

> <PUBCHEM_CACTVS_HBOND_ACCEPTOR>
8

> <PUBCHEM_CACTVS_HBOND_DONOR>
2

> <PUBCHEM_CACTVS_ROTATABLE_BOND>
2

> <PUBCHEM_CACTVS_SUBSKEYS>
AAADceB7McAAAAAAAAAAAAAAAAAAAYAAAAAwYMEAAAAAAGDBAAAAHwAQAAAADyjBmBQywILAAACIAiVSUACCAAAhAgAIiIEIZMgIIDLAkZGEIAhglgDIyYcYiMCPwAAAQAACAACQAASAACQAAQAACAAAAA==

> <PUBCHEM_IUPAC_OPENEYE_NAME>
(1S,3aS,3bS,5aR,9aR,11aS)-N-[2,5-bis(trifluoromethyl)phenyl]-9a,11a-dimethyl-7-oxo-1,2,3,3a,3b,4,5,5a,6,9b,10,11-dodecahydroindeno[5,4-f]quinoline-1-carboxamide

> <PUBCHEM_IUPAC_CAS_NAME>
(1S,3aS,3bS,5aR,9aR,11aS)-N-[2,5-bis(trifluoromethyl)phenyl]-9a,11a-dimethyl-7-oxo-1,2,3,3a,3b,4,5,5a,6,9b,10,11-dodecahydroindeno[5,4-f]quinoline-1-carboxamide

> <PUBCHEM_IUPAC_NAME>
(1S,3aS,3bS,5aR,9aR,11aS)-N-[2,5-bis(trifluoromethyl)phenyl]-9a,11a-dimethyl-7-oxo-1,2,3,3a,3b,4,5,5a,6,9b,10,11-dodecahydroindeno[5,4-f]quinoline-1-carboxamide

> <PUBCHEM_IUPAC_SYSTEMATIC_NAME>
(1S,3aS,3bS,5aR,9aR,11aS)-N-[2,5-bis(trifluoromethyl)phenyl]-9a,11a-dimethyl-7-oxidanylidene-1,2,3,3a,3b,4,5,5a,6,9b,10,11-dodecahydroindeno[5,4-f]quinoline-1-carboxamide

> <PUBCHEM_IUPAC_TRADITIONAL_NAME>
(1S,3aS,3bS,5aR,9aR,11aS)-N-[2,5-bis(trifluoromethyl)phenyl]-7-keto-9a,11a-dimethyl-1,2,3,3a,3b,4,5,5a,6,9b,10,11-dodecahydroindeno[5,4-f]quinoline-1-carboxamide

> <PUBCHEM_IUPAC_INCHI>
InChI=1S/C27H30F6N2O2/c1-24-11-9-17-15(4-8-21-25(17,2)12-10-22(36)35-21)16(24)6-7-19(24)23(37)34-20-13-14(26(28,29)30)3-5-18(20)27(31,32)33/h3,5,10,12-13,15-17,19,21H,4,6-9,11H2,1-2H3,(H,34,37)(H,35,36)/t15-,16-,17?,19+,21+,24-,25+/m0/s1

> <PUBCHEM_IUPAC_INCHIKEY>
JWJOTENAMICLJG-VYZSUTEISA-N

> <PUBCHEM_XLOGP3>
5.4

> <PUBCHEM_EXACT_MASS>
528.221148

> <PUBCHEM_MOLECULAR_FORMULA>
C27H30F6N2O2

> <PUBCHEM_MOLECULAR_WEIGHT>
528.529719

> <PUBCHEM_OPENEYE_CAN_SMILES>
CC12CCC3C(C1CCC2C(=O)NC4=C(C=CC(=C4)C(F)(F)F)C(F)(F)F)CCC5C3(C=CC(=O)N5)C

> <PUBCHEM_OPENEYE_ISO_SMILES>
C[C@]12CCC3[C@H]([C@@H]1CC[C@@H]2C(=O)NC4=C(C=CC(=C4)C(F)(F)F)C(F)(F)F)CC[C@@H]5[C@@]3(C=CC(=O)N5)C

> <PUBCHEM_CACTVS_TPSA>
58.2

> <PUBCHEM_MONOISOTOPIC_WEIGHT>
528.221148

> <PUBCHEM_TOTAL_CHARGE>
0

> <PUBCHEM_HEAVY_ATOM_COUNT>
37

> <PUBCHEM_ATOM_DEF_STEREO_COUNT>
6

> <PUBCHEM_ATOM_UDEF_STEREO_COUNT>
1

> <PUBCHEM_BOND_DEF_STEREO_COUNT>
0

> <PUBCHEM_BOND_UDEF_STEREO_COUNT>
0

> <PUBCHEM_ISOTOPIC_ATOM_COUNT>
0

> <PUBCHEM_COMPONENT_COUNT>
1

> <PUBCHEM_CACTVS_TAUTO_COUNT>
6

> <PUBCHEM_COORDINATE_TYPE>
1
5
255

> <PUBCHEM_BONDANNOTATIONS>
11  38  6
12  24  5
13  39  5
14  40  3
15  25  5
17  27  5
22  52  6
30  31  8
30  32  8
31  34  8
32  33  8
33  36  8
34  36  8

$$$$
