154059
  -OEChem-12171208232D

 53 57  0     1  0  0  0  0  0999 V2000
    6.6725    0.7382    0.0000 O   0  0  0  0  0  0  0  0  0  0  0  0
    7.5385   -0.7618    0.0000 O   0  0  0  0  0  0  0  0  0  0  0  0
    4.3320   -0.0361    0.0000 N   0  0  0  0  0  0  0  0  0  0  0  0
    8.4045    0.7382    0.0000 N   0  0  0  0  0  0  0  0  0  0  0  0
    3.8320    0.8299    0.0000 C   0  0  0  0  0  0  0  0  0  0  0  0
    5.8064    0.2382    0.0000 C   0  0  2  0  0  0  0  0  0  0  0  0
    2.0000    0.0711    0.0000 C   0  0  0  0  0  0  0  0  0  0  0  0
    4.3496    2.7618    0.0000 C   0  0  0  0  0  0  0  0  0  0  0  0
    5.5476   -0.7277    0.0000 C   0  0  0  0  0  0  0  0  0  0  0  0
    5.3155    2.5029    0.0000 C   0  0  0  0  0  0  0  0  0  0  0  0
    2.5000   -0.7949    0.0000 C   0  0  0  0  0  0  0  0  0  0  0  0
    7.5385    0.2382    0.0000 C   0  0  0  0  0  0  0  0  0  0  0  0
    9.2706    0.2382    0.0000 C   0  0  2  0  0  0  0  0  0  0  0  0
    8.4045    1.7382    0.0000 C   0  0  0  0  0  0  0  0  0  0  0  0
   10.1366    0.7382    0.0000 C   0  0  0  0  0  0  0  0  0  0  0  0
    9.2706    2.2382    0.0000 C   0  0  0  0  0  0  0  0  0  0  0  0
   10.1366    1.7382    0.0000 C   0  0  0  0  0  0  0  0  0  0  0  0
    9.2706   -0.7618    0.0000 C   0  0  0  0  0  0  0  0  0  0  0  0
   11.0305    0.2036    0.0000 C   0  0  0  0  0  0  0  0  0  0  0  0
   11.0305    2.2729    0.0000 C   0  0  0  0  0  0  0  0  0  0  0  0
    8.4045   -1.2618    0.0000 C   0  0  0  0  0  0  0  0  0  0  0  0
   10.1366   -1.2618    0.0000 C   0  0  0  0  0  0  0  0  0  0  0  0
   11.9366    0.7174    0.0000 C   0  0  0  0  0  0  0  0  0  0  0  0
   11.9366    1.7590    0.0000 C   0  0  0  0  0  0  0  0  0  0  0  0
    8.4045   -2.2618    0.0000 C   0  0  0  0  0  0  0  0  0  0  0  0
   10.1366   -2.2618    0.0000 C   0  0  0  0  0  0  0  0  0  0  0  0
    9.2706   -2.7618    0.0000 C   0  0  0  0  0  0  0  0  0  0  0  0
    3.3658    1.2387    0.0000 H   0  0  0  0  0  0  0  0  0  0  0  0
    6.2983   -0.1392    0.0000 H   0  0  0  0  0  0  0  0  0  0  0  0
    4.5101    3.3606    0.0000 H   0  0  0  0  0  0  0  0  0  0  0  0
    3.7507    2.9222    0.0000 H   0  0  0  0  0  0  0  0  0  0  0  0
    1.7380    0.6330    0.0000 H   0  0  0  0  0  0  0  0  0  0  0  0
    1.4500   -0.2152    0.0000 H   0  0  0  0  0  0  0  0  0  0  0  0
    5.2880   -1.2907    0.0000 H   0  0  0  0  0  0  0  0  0  0  0  0
    6.1307   -0.9385    0.0000 H   0  0  0  0  0  0  0  0  0  0  0  0
    5.9013    2.2999    0.0000 H   0  0  0  0  0  0  0  0  0  0  0  0
    5.4974    3.0957    0.0000 H   0  0  0  0  0  0  0  0  0  0  0  0
    1.9500   -1.0812    0.0000 H   0  0  0  0  0  0  0  0  0  0  0  0
    2.7620   -1.3568    0.0000 H   0  0  0  0  0  0  0  0  0  0  0  0
    8.7336   -0.0718    0.0000 H   0  0  0  0  0  0  0  0  0  0  0  0
    8.1925    2.3208    0.0000 H   0  0  0  0  0  0  0  0  0  0  0  0
    7.7939    1.6306    0.0000 H   0  0  0  0  0  0  0  0  0  0  0  0
    9.6691    2.7132    0.0000 H   0  0  0  0  0  0  0  0  0  0  0  0
    8.8720    2.7132    0.0000 H   0  0  0  0  0  0  0  0  0  0  0  0
   11.0233   -0.4164    0.0000 H   0  0  0  0  0  0  0  0  0  0  0  0
   11.0233    2.8928    0.0000 H   0  0  0  0  0  0  0  0  0  0  0  0
    7.8676   -0.9518    0.0000 H   0  0  0  0  0  0  0  0  0  0  0  0
   10.6735   -0.9518    0.0000 H   0  0  0  0  0  0  0  0  0  0  0  0
   12.4723    0.4053    0.0000 H   0  0  0  0  0  0  0  0  0  0  0  0
   12.4723    2.0711    0.0000 H   0  0  0  0  0  0  0  0  0  0  0  0
    7.8676   -2.5718    0.0000 H   0  0  0  0  0  0  0  0  0  0  0  0
   10.6735   -2.5718    0.0000 H   0  0  0  0  0  0  0  0  0  0  0  0
    9.2706   -3.3818    0.0000 H   0  0  0  0  0  0  0  0  0  0  0  0
  6  1  1  1  0  0  0
  1 12  1  0  0  0  0
  2 12  2  0  0  0  0
  3  9  1  0  0  0  0
  3 10  1  0  0  0  0
  3 11  1  0  0  0  0
  4 12  1  0  0  0  0
  4 13  1  0  0  0  0
  4 14  1  0  0  0  0
  5  6  1  0  0  0  0
  5  7  1  0  0  0  0
  5  8  1  0  0  0  0
  5 28  1  0  0  0  0
  6  9  1  0  0  0  0
  6 29  1  0  0  0  0
  7 11  1  0  0  0  0
  7 32  1  0  0  0  0
  7 33  1  0  0  0  0
  8 10  1  0  0  0  0
  8 30  1  0  0  0  0
  8 31  1  0  0  0  0
  9 34  1  0  0  0  0
  9 35  1  0  0  0  0
 10 36  1  0  0  0  0
 10 37  1  0  0  0  0
 11 38  1  0  0  0  0
 11 39  1  0  0  0  0
 13 15  1  0  0  0  0
 13 18  1  6  0  0  0
 13 40  1  0  0  0  0
 14 16  1  0  0  0  0
 14 41  1  0  0  0  0
 14 42  1  0  0  0  0
 15 17  1  0  0  0  0
 15 19  2  0  0  0  0
 16 17  1  0  0  0  0
 16 43  1  0  0  0  0
 16 44  1  0  0  0  0
 17 20  2  0  0  0  0
 18 21  2  0  0  0  0
 18 22  1  0  0  0  0
 19 23  1  0  0  0  0
 19 45  1  0  0  0  0
 20 24  1  0  0  0  0
 20 46  1  0  0  0  0
 21 25  1  0  0  0  0
 21 47  1  0  0  0  0
 22 26  2  0  0  0  0
 22 48  1  0  0  0  0
 23 24  2  0  0  0  0
 23 49  1  0  0  0  0
 24 50  1  0  0  0  0
 25 27  2  0  0  0  0
 25 51  1  0  0  0  0
 26 27  1  0  0  0  0
 26 52  1  0  0  0  0
 27 53  1  0  0  0  0
M  END
> <PUBCHEM_COMPOUND_CID>
154059

> <PUBCHEM_COMPOUND_CANONICALIZED>
1

> <PUBCHEM_CACTVS_COMPLEXITY>
525

> <PUBCHEM_CACTVS_HBOND_ACCEPTOR>
3

> <PUBCHEM_CACTVS_HBOND_DONOR>
0

> <PUBCHEM_CACTVS_ROTATABLE_BOND>
3

> <PUBCHEM_CACTVS_SUBSKEYS>
AAADceB7MAAAAAAAAAAAAAAAAAAAAAAAAAA8eLFiAAAAAACxQAAAHgAAAAAADTzhmAYwCIMABACIAiBCGACCAAAgAAAIiAAIBIgKICKAkRGNIAhkhgCYiAcwgMAOgAAAAAAQAAAAAAAAACAAAAAAAAAAAA==

> <PUBCHEM_IUPAC_OPENEYE_NAME>
[(3R)-quinuclidin-3-yl] (1S)-1-phenyl-3,4-dihydro-1H-isoquinoline-2-carboxylate

> <PUBCHEM_IUPAC_CAS_NAME>
(1S)-1-phenyl-3,4-dihydro-1H-isoquinoline-2-carboxylic acid [(3R)-1-azabicyclo[2.2.2]octan-3-yl] ester

> <PUBCHEM_IUPAC_NAME>
[(3R)-1-azabicyclo[2.2.2]octan-3-yl] (1S)-1-phenyl-3,4-dihydro-1H-isoquinoline-2-carboxylate

> <PUBCHEM_IUPAC_SYSTEMATIC_NAME>
[(3R)-1-azabicyclo[2.2.2]octan-3-yl] (1S)-1-phenyl-3,4-dihydro-1H-isoquinoline-2-carboxylate

> <PUBCHEM_IUPAC_TRADITIONAL_NAME>
(1S)-1-phenyl-3,4-dihydro-1H-isoquinoline-2-carboxylic acid [(3R)-quinuclidin-3-yl] ester

> <PUBCHEM_IUPAC_INCHI>
InChI=1S/C23H26N2O2/c26-23(27-21-16-24-13-10-18(21)11-14-24)25-15-12-17-6-4-5-9-20(17)22(25)19-7-2-1-3-8-19/h1-9,18,21-22H,10-16H2/t21-,22-/m0/s1

> <PUBCHEM_IUPAC_INCHIKEY>
FBOUYBDGKBSUES-VXKWHMMOSA-N

> <PUBCHEM_XLOGP3_AA>
4

> <PUBCHEM_EXACT_MASS>
362.199428

> <PUBCHEM_MOLECULAR_FORMULA>
C23H26N2O2

> <PUBCHEM_MOLECULAR_WEIGHT>
362.46474

> <PUBCHEM_OPENEYE_CAN_SMILES>
C1CN2CCC1C(C2)OC(=O)N3CCC4=CC=CC=C4C3C5=CC=CC=C5

> <PUBCHEM_OPENEYE_ISO_SMILES>
C1CN2CCC1[C@H](C2)OC(=O)N3CCC4=CC=CC=C4[C@@H]3C5=CC=CC=C5

> <PUBCHEM_CACTVS_TPSA>
32.8

> <PUBCHEM_MONOISOTOPIC_WEIGHT>
362.199428

> <PUBCHEM_TOTAL_CHARGE>
0

> <PUBCHEM_HEAVY_ATOM_COUNT>
27

> <PUBCHEM_ATOM_DEF_STEREO_COUNT>
2

> <PUBCHEM_ATOM_UDEF_STEREO_COUNT>
0

> <PUBCHEM_BOND_DEF_STEREO_COUNT>
0

> <PUBCHEM_BOND_UDEF_STEREO_COUNT>
0

> <PUBCHEM_ISOTOPIC_ATOM_COUNT>
0

> <PUBCHEM_COMPONENT_COUNT>
1

> <PUBCHEM_CACTVS_TAUTO_COUNT>
1

> <PUBCHEM_COORDINATE_TYPE>
1
5
255

> <PUBCHEM_BONDANNOTATIONS>
6  1  5
13  18  6
15  17  8
15  19  8
17  20  8
18  21  8
18  22  8
19  23  8
20  24  8
21  25  8
22  26  8
23  24  8
25  27  8
26  27  8

$$$$
