1690
  -OEChem-12171207532D

 69 73  0     1  0  0  0  0  0999 V2000
    5.9812    0.3524    0.0000 O   0  0  0  0  0  0  0  0  0  0  0  0
    4.2493    0.3724    0.0000 O   0  0  0  0  0  0  0  0  0  0  0  0
    4.5669   -3.0710    0.0000 O   0  0  0  0  0  0  0  0  0  0  0  0
    2.5405    2.3923    0.0000 O   0  0  0  0  0  0  0  0  0  0  0  0
    7.7296    0.3178    0.0000 O   0  0  0  0  0  0  0  0  0  0  0  0
    7.7296   -3.6822    0.0000 O   0  0  0  0  0  0  0  0  0  0  0  0
    3.5603   -1.3428    0.0000 O   0  0  0  0  0  0  0  0  0  0  0  0
    2.5670   -3.0787    0.0000 O   0  0  0  0  0  0  0  0  0  0  0  0
    9.4780    0.3524    0.0000 O   0  0  0  0  0  0  0  0  0  0  0  0
    9.4780   -3.7168    0.0000 O   0  0  0  0  0  0  0  0  0  0  0  0
   11.3153    0.3955    0.0000 O   0  0  0  0  0  0  0  0  0  0  0  0
    4.2840    3.3722    0.0000 N   0  3  0  0  0  0  0  0  0  0  0  0
    5.9697   -0.6475    0.0000 C   0  0  3  0  0  0  0  0  0  0  0  0
    5.0636   -2.2030    0.0000 C   0  0  3  0  0  0  0  0  0  0  0  0
    5.0636   -1.1614    0.0000 C   0  0  0  0  0  0  0  0  0  0  0  0
    5.9697   -2.7168    0.0000 C   0  0  0  0  0  0  0  0  0  0  0  0
    4.2724    2.3723    0.0000 C   0  0  3  0  0  0  0  0  0  0  0  0
    6.8636   -1.1822    0.0000 C   0  0  0  0  0  0  0  0  0  0  0  0
    5.1210    0.8624    0.0000 C   0  0  3  0  0  0  0  0  0  0  0  0
    5.1326    1.8623    0.0000 C   0  0  0  0  0  0  0  0  0  0  0  0
    6.8636   -2.1822    0.0000 C   0  0  0  0  0  0  0  0  0  0  0  0
    3.4007    1.8824    0.0000 C   0  0  3  0  0  0  0  0  0  0  0  0
    3.3891    0.8824    0.0000 C   0  0  3  0  0  0  0  0  0  0  0  0
    7.7296   -0.6822    0.0000 C   0  0  0  0  0  0  0  0  0  0  0  0
    4.0636   -2.2069    0.0000 C   0  0  0  0  0  0  0  0  0  0  0  0
    7.7296   -2.6822    0.0000 C   0  0  0  0  0  0  0  0  0  0  0  0
    8.5957   -1.1822    0.0000 C   0  0  0  0  0  0  0  0  0  0  0  0
    8.5957   -2.1822    0.0000 C   0  0  0  0  0  0  0  0  0  0  0  0
    2.5174    0.3925    0.0000 C   0  0  0  0  0  0  0  0  0  0  0  0
    3.5670   -3.0748    0.0000 C   0  0  0  0  0  0  0  0  0  0  0  0
    9.4896   -0.6475    0.0000 C   0  0  0  0  0  0  0  0  0  0  0  0
    9.4896   -2.7168    0.0000 C   0  0  0  0  0  0  0  0  0  0  0  0
   10.3957   -1.1614    0.0000 C   0  0  0  0  0  0  0  0  0  0  0  0
   10.3957   -2.2030    0.0000 C   0  0  0  0  0  0  0  0  0  0  0  0
   11.3268   -0.6045    0.0000 C   0  0  0  0  0  0  0  0  0  0  0  0
   11.3268   -2.7599    0.0000 C   0  0  0  0  0  0  0  0  0  0  0  0
   12.2706   -1.1397    0.0000 C   0  0  0  0  0  0  0  0  0  0  0  0
   12.2706   -2.2247    0.0000 C   0  0  0  0  0  0  0  0  0  0  0  0
   12.1754    0.9055    0.0000 C   0  0  0  0  0  0  0  0  0  0  0  0
    5.4357   -0.3324    0.0000 H   0  0  0  0  0  0  0  0  0  0  0  0
    4.8545   -0.5777    0.0000 H   0  0  0  0  0  0  0  0  0  0  0  0
    4.4527   -1.2675    0.0000 H   0  0  0  0  0  0  0  0  0  0  0  0
    5.5760   -3.1959    0.0000 H   0  0  0  0  0  0  0  0  0  0  0  0
    6.3743   -3.1866    0.0000 H   0  0  0  0  0  0  0  0  0  0  0  0
    3.7391    2.6885    0.0000 H   0  0  0  0  0  0  0  0  0  0  0  0
    5.6615    1.1662    0.0000 H   0  0  0  0  0  0  0  0  0  0  0  0
    5.7419    1.7476    0.0000 H   0  0  0  0  0  0  0  0  0  0  0  0
    5.3514    2.4424    0.0000 H   0  0  0  0  0  0  0  0  0  0  0  0
    2.8602    1.5786    0.0000 H   0  0  0  0  0  0  0  0  0  0  0  0
    3.3819    0.2625    0.0000 H   0  0  0  0  0  0  0  0  0  0  0  0
    4.2912    3.9922    0.0000 H   0  0  0  0  0  0  0  0  0  0  0  0
    4.9039    3.3651    0.0000 H   0  0  0  0  0  0  0  0  0  0  0  0
    3.6640    3.3794    0.0000 H   0  0  0  0  0  0  0  0  0  0  0  0
    2.2136    0.9329    0.0000 H   0  0  0  0  0  0  0  0  0  0  0  0
    1.9769    0.0887    0.0000 H   0  0  0  0  0  0  0  0  0  0  0  0
    2.8211   -0.1480    0.0000 H   0  0  0  0  0  0  0  0  0  0  0  0
    4.8790   -3.6067    0.0000 H   0  0  0  0  0  0  0  0  0  0  0  0
    3.4616   -3.6858    0.0000 H   0  0  0  0  0  0  0  0  0  0  0  0
    4.1504   -3.2846    0.0000 H   0  0  0  0  0  0  0  0  0  0  0  0
    2.0000    2.0886    0.0000 H   0  0  0  0  0  0  0  0  0  0  0  0
    8.2666    0.6278    0.0000 H   0  0  0  0  0  0  0  0  0  0  0  0
    7.1927   -3.9922    0.0000 H   0  0  0  0  0  0  0  0  0  0  0  0
   11.3197   -3.3799    0.0000 H   0  0  0  0  0  0  0  0  0  0  0  0
    2.2590   -3.6168    0.0000 H   0  0  0  0  0  0  0  0  0  0  0  0
   12.8063   -0.8276    0.0000 H   0  0  0  0  0  0  0  0  0  0  0  0
   12.8063   -2.5368    0.0000 H   0  0  0  0  0  0  0  0  0  0  0  0
   12.4916    0.3721    0.0000 H   0  0  0  0  0  0  0  0  0  0  0  0
   12.7088    1.2216    0.0000 H   0  0  0  0  0  0  0  0  0  0  0  0
   11.8593    1.4388    0.0000 H   0  0  0  0  0  0  0  0  0  0  0  0
  1 13  1  0  0  0  0
  1 19  1  0  0  0  0
  2 19  1  0  0  0  0
  2 23  1  0  0  0  0
  3 14  1  0  0  0  0
  3 57  1  0  0  0  0
  4 22  1  0  0  0  0
  4 60  1  0  0  0  0
  5 24  1  0  0  0  0
  5 61  1  0  0  0  0
  6 26  1  0  0  0  0
  6 62  1  0  0  0  0
  7 25  2  0  0  0  0
  8 30  1  0  0  0  0
  8 64  1  0  0  0  0
  9 31  2  0  0  0  0
 10 32  2  0  0  0  0
 11 35  1  0  0  0  0
 11 39  1  0  0  0  0
 12 17  1  0  0  0  0
 12 51  1  0  0  0  0
 12 52  1  0  0  0  0
 12 53  1  0  0  0  0
 13 15  1  0  0  0  0
 13 18  1  0  0  0  0
 13 40  1  0  0  0  0
 14 15  1  0  0  0  0
 14 16  1  0  0  0  0
 14 25  1  0  0  0  0
 15 41  1  0  0  0  0
 15 42  1  0  0  0  0
 16 21  1  0  0  0  0
 16 43  1  0  0  0  0
 16 44  1  0  0  0  0
 17 20  1  0  0  0  0
 17 22  1  0  0  0  0
 17 45  1  0  0  0  0
 18 21  2  0  0  0  0
 18 24  1  0  0  0  0
 19 20  1  0  0  0  0
 19 46  1  0  0  0  0
 20 47  1  0  0  0  0
 20 48  1  0  0  0  0
 21 26  1  0  0  0  0
 22 23  1  0  0  0  0
 22 49  1  0  0  0  0
 23 29  1  0  0  0  0
 23 50  1  0  0  0  0
 24 27  2  0  0  0  0
 25 30  1  0  0  0  0
 26 28  2  0  0  0  0
 27 28  1  0  0  0  0
 27 31  1  0  0  0  0
 28 32  1  0  0  0  0
 29 54  1  0  0  0  0
 29 55  1  0  0  0  0
 29 56  1  0  0  0  0
 30 58  1  0  0  0  0
 30 59  1  0  0  0  0
 31 33  1  0  0  0  0
 32 34  1  0  0  0  0
 33 34  2  0  0  0  0
 33 35  1  0  0  0  0
 34 36  1  0  0  0  0
 35 37  2  0  0  0  0
 36 38  2  0  0  0  0
 36 63  1  0  0  0  0
 37 38  1  0  0  0  0
 37 65  1  0  0  0  0
 38 66  1  0  0  0  0
 39 67  1  0  0  0  0
 39 68  1  0  0  0  0
 39 69  1  0  0  0  0
M  CHG  1  12   1
M  END
> <PUBCHEM_COMPOUND_CID>
1690

> <PUBCHEM_COMPOUND_CANONICALIZED>
1

> <PUBCHEM_CACTVS_COMPLEXITY>
977

> <PUBCHEM_CACTVS_HBOND_ACCEPTOR>
11

> <PUBCHEM_CACTVS_HBOND_DONOR>
6

> <PUBCHEM_CACTVS_ROTATABLE_BOND>
5

> <PUBCHEM_CACTVS_SUBSKEYS>
AAADceB6PAAAAAAAAAAAAAAAAAAAAAAAAAA0YMGCAAAAAADBQAAAHgAQCAAADHzxmAcyDoBABgCIAqBSAAICCAAkIAAIiIFGCMgfNzaGtRqicWAn8BEPuYfL7PzOwQADAAAYAADCAAYQADAAAAAAAAAAAA==

> <PUBCHEM_IUPAC_OPENEYE_NAME>
[3-hydroxy-2-methyl-6-[[3,5,12-trihydroxy-3-(2-hydroxyacetyl)-10-methoxy-6,11-dioxo-2,4-dihydro-1H-tetracen-1-yl]oxy]tetrahydropyran-4-yl]ammonium

> <PUBCHEM_IUPAC_CAS_NAME>
[3-hydroxy-2-methyl-6-[[3,5,12-trihydroxy-3-(2-hydroxy-1-oxoethyl)-10-methoxy-6,11-dioxo-2,4-dihydro-1H-tetracen-1-yl]oxy]-4-oxanyl]ammonium

> <PUBCHEM_IUPAC_NAME>
[3-hydroxy-2-methyl-6-[[3,5,12-trihydroxy-3-(2-hydroxyacetyl)-10-methoxy-6,11-dioxo-2,4-dihydro-1H-tetracen-1-yl]oxy]oxan-4-yl]azanium

> <PUBCHEM_IUPAC_SYSTEMATIC_NAME>
[6-[[10-methoxy-3,5,12-tris(oxidanyl)-3-(2-oxidanylethanoyl)-6,11-bis(oxidanylidene)-2,4-dihydro-1H-tetracen-1-yl]oxy]-2-methyl-3-oxidanyl-oxan-4-yl]azanium

> <PUBCHEM_IUPAC_TRADITIONAL_NAME>
[6-[(3-glycoloyl-3,5,12-trihydroxy-6,11-diketo-10-methoxy-2,4-dihydro-1H-tetracen-1-yl)oxy]-3-hydroxy-2-methyl-tetrahydropyran-4-yl]ammonium

> <PUBCHEM_IUPAC_INCHI>
InChI=1S/C27H29NO11/c1-10-22(31)13(28)6-17(38-10)39-15-8-27(36,16(30)9-29)7-12-19(15)26(35)21-20(24(12)33)23(32)11-4-3-5-14(37-2)18(11)25(21)34/h3-5,10,13,15,17,22,29,31,33,35-36H,6-9,28H2,1-2H3/p+1

> <PUBCHEM_IUPAC_INCHIKEY>
AOJJSUZBOXZQNB-UHFFFAOYSA-O

> <PUBCHEM_XLOGP3>
1.3

> <PUBCHEM_EXACT_MASS>
544.181886

> <PUBCHEM_MOLECULAR_FORMULA>
C27H30NO11+

> <PUBCHEM_MOLECULAR_WEIGHT>
544.5272

> <PUBCHEM_OPENEYE_CAN_SMILES>
CC1C(C(CC(O1)OC2CC(CC3=C(C4=C(C(=C23)O)C(=O)C5=C(C4=O)C=CC=C5OC)O)(C(=O)CO)O)[NH3+])O

> <PUBCHEM_OPENEYE_ISO_SMILES>
CC1C(C(CC(O1)OC2CC(CC3=C(C4=C(C(=C23)O)C(=O)C5=C(C4=O)C=CC=C5OC)O)(C(=O)CO)O)[NH3+])O

> <PUBCHEM_CACTVS_TPSA>
208

> <PUBCHEM_MONOISOTOPIC_WEIGHT>
544.181886

> <PUBCHEM_TOTAL_CHARGE>
1

> <PUBCHEM_HEAVY_ATOM_COUNT>
39

> <PUBCHEM_ATOM_DEF_STEREO_COUNT>
0

> <PUBCHEM_ATOM_UDEF_STEREO_COUNT>
6

> <PUBCHEM_BOND_DEF_STEREO_COUNT>
0

> <PUBCHEM_BOND_UDEF_STEREO_COUNT>
0

> <PUBCHEM_ISOTOPIC_ATOM_COUNT>
0

> <PUBCHEM_COMPONENT_COUNT>
1

> <PUBCHEM_CACTVS_TAUTO_COUNT>
81

> <PUBCHEM_COORDINATE_TYPE>
1
5
255

> <PUBCHEM_BONDANNOTATIONS>
13  1  3
19  1  3
17  12  3
18  21  8
18  24  8
21  26  8
23  29  3
24  27  8
26  28  8
27  28  8
14  3  3
33  34  8
33  35  8
34  36  8
35  37  8
36  38  8
37  38  8
22  4  3

$$$$
