176168
  -OEChem-12171208232D

 17 11  0     0  0  0  0  0  0999 V2000
    1.7071    1.7071    0.0000 La  0  1  0  0  0  0  0  0  0  0  0  0
    5.0532    2.6037    0.0000 La  0  1  0  0  0  0  0  0  0  0  0  0
    1.7071    0.7071    0.0000 O   0  5  0  0  0  0  0  0  0  0  0  0
    0.7071    1.7071    0.0000 O   0  5  0  0  0  0  0  0  0  0  0  0
    2.4142    2.4142    0.0000 O   0  5  0  0  0  0  0  0  0  0  0  0
    4.0872    2.8625    0.0000 O   0  5  0  0  0  0  0  0  0  0  0  0
    5.7603    3.3108    0.0000 O   0  5  0  0  0  0  0  0  0  0  0  0
    5.3120    1.6378    0.0000 O   0  5  0  0  0  0  0  0  0  0  0  0
    0.0000    0.0000    0.0000 O   0  0  0  0  0  0  0  0  0  0  0  0
    3.6390    1.1895    0.0000 O   0  0  0  0  0  0  0  0  0  0  0  0
    7.4333    3.7591    0.0000 O   0  0  0  0  0  0  0  0  0  0  0  0
    3.7167    5.7591    0.0000 O   0  0  0  0  0  0  0  0  0  0  0  0
    0.7071    0.7071    0.0000 C   0  0  0  0  0  0  0  0  0  0  0  0
    3.3801    2.1554    0.0000 C   0  0  0  0  0  0  0  0  0  0  0  0
    6.7262    3.0520    0.0000 C   0  0  0  0  0  0  0  0  0  0  0  0
    4.2536    6.0691    0.0000 H   0  0  0  0  0  0  0  0  0  0  0  0
    3.1797    6.0691    0.0000 H   0  0  0  0  0  0  0  0  0  0  0  0
  3 13  1  0  0  0  0
  4 13  1  0  0  0  0
  5 14  1  0  0  0  0
  6 14  1  0  0  0  0
  7 15  1  0  0  0  0
  8 15  1  0  0  0  0
  9 13  2  0  0  0  0
 10 14  2  0  0  0  0
 11 15  2  0  0  0  0
 12 16  1  0  0  0  0
 12 17  1  0  0  0  0
M  CHG  8   1   3   2   3   3  -1   4  -1   5  -1   6  -1   7  -1   8  -1
M  END
> <PUBCHEM_COMPOUND_CID>
176168

> <PUBCHEM_COMPOUND_CANONICALIZED>
1

> <PUBCHEM_CACTVS_COMPLEXITY>
18.8

> <PUBCHEM_CACTVS_HBOND_ACCEPTOR>
10

> <PUBCHEM_CACTVS_HBOND_DONOR>
1

> <PUBCHEM_CACTVS_ROTATABLE_BOND>
0

> <PUBCHEM_CACTVS_SUBSKEYS>
AAADcQBAPAAAAAAAAAAAABAAAAAAAAAAAAAAAAAAAAAAAAAAAAAAAgAACAAAAAAAAAAACAAAAAAIAAAACAAAAAAAAAAAAAAAAAAAAAAAAAAAAAAAAAAAAAAAAAAAAAAAAAAAAAAAAAAAAAAAAAAAAAAAAA==

> <PUBCHEM_IUPAC_OPENEYE_NAME>
lanthanum(3+);tricarbonate;hydrate

> <PUBCHEM_IUPAC_CAS_NAME>
lanthanum(3+);tricarbonate;hydrate

> <PUBCHEM_IUPAC_NAME>
lanthanum(3+);tricarbonate;hydrate

> <PUBCHEM_IUPAC_SYSTEMATIC_NAME>
lanthanum(3+);tricarbonate;hydrate

> <PUBCHEM_IUPAC_TRADITIONAL_NAME>
lanthanum(3+);tricarbonate;hydrate

> <PUBCHEM_IUPAC_INCHI>
InChI=1S/3CH2O3.2La.H2O/c3*2-1(3)4;;;/h3*(H2,2,3,4);;;1H2/q;;;2*+3;/p-6

> <PUBCHEM_IUPAC_INCHIKEY>
AFCUGQOTNCVYSW-UHFFFAOYSA-H

> <PUBCHEM_EXACT_MASS>
475.777503

> <PUBCHEM_MOLECULAR_FORMULA>
C3H2La2O10

> <PUBCHEM_MOLECULAR_WEIGHT>
475.85292

> <PUBCHEM_OPENEYE_CAN_SMILES>
C(=O)([O-])[O-].C(=O)([O-])[O-].C(=O)([O-])[O-].O.[La+3].[La+3]

> <PUBCHEM_OPENEYE_ISO_SMILES>
C(=O)([O-])[O-].C(=O)([O-])[O-].C(=O)([O-])[O-].O.[La+3].[La+3]

> <PUBCHEM_CACTVS_TPSA>
191

> <PUBCHEM_MONOISOTOPIC_WEIGHT>
475.777503

> <PUBCHEM_TOTAL_CHARGE>
0

> <PUBCHEM_HEAVY_ATOM_COUNT>
15

> <PUBCHEM_ATOM_DEF_STEREO_COUNT>
0

> <PUBCHEM_ATOM_UDEF_STEREO_COUNT>
0

> <PUBCHEM_BOND_DEF_STEREO_COUNT>
0

> <PUBCHEM_BOND_UDEF_STEREO_COUNT>
0

> <PUBCHEM_ISOTOPIC_ATOM_COUNT>
0

> <PUBCHEM_COMPONENT_COUNT>
6

> <PUBCHEM_CACTVS_TAUTO_COUNT>
1

> <PUBCHEM_COORDINATE_TYPE>
1
5
255

$$$$
