2182
  -OEChem-12171207542D

 23 25  0     0  0  0  0  0  0999 V2000
    3.7817    1.8273    0.0000 Cl  0  0  0  0  0  0  0  0  0  0  0  0
    2.0000    0.8169    0.0000 Cl  0  0  0  0  0  0  0  0  0  0  0  0
    8.9260   -0.2073    0.0000 O   0  0  0  0  0  0  0  0  0  0  0  0
    6.3961    0.2927    0.0000 N   0  0  0  0  0  0  0  0  0  0  0  0
    5.5301   -1.2073    0.0000 N   0  0  0  0  0  0  0  0  0  0  0  0
    7.3424   -1.0120    0.0000 N   0  0  0  0  0  0  0  0  0  0  0  0
    5.5301    0.7927    0.0000 C   0  0  0  0  0  0  0  0  0  0  0  0
    4.6641    0.2927    0.0000 C   0  0  0  0  0  0  0  0  0  0  0  0
    6.3961   -0.7073    0.0000 C   0  0  0  0  0  0  0  0  0  0  0  0
    7.3424    0.5974    0.0000 C   0  0  0  0  0  0  0  0  0  0  0  0
    4.6641   -0.7073    0.0000 C   0  0  0  0  0  0  0  0  0  0  0  0
    7.9260   -0.2073    0.0000 C   0  0  0  0  0  0  0  0  0  0  0  0
    3.7702    0.8274    0.0000 C   0  0  0  0  0  0  0  0  0  0  0  0
    3.7702   -1.2420    0.0000 C   0  0  0  0  0  0  0  0  0  0  0  0
    2.8641    0.3135    0.0000 C   0  0  0  0  0  0  0  0  0  0  0  0
    2.8641   -0.7281    0.0000 C   0  0  0  0  0  0  0  0  0  0  0  0
    5.9286    1.2676    0.0000 H   0  0  0  0  0  0  0  0  0  0  0  0
    5.1316    1.2676    0.0000 H   0  0  0  0  0  0  0  0  0  0  0  0
    7.8798    0.9067    0.0000 H   0  0  0  0  0  0  0  0  0  0  0  0
    7.0913    1.1643    0.0000 H   0  0  0  0  0  0  0  0  0  0  0  0
    5.5301   -1.8273    0.0000 H   0  0  0  0  0  0  0  0  0  0  0  0
    3.7773   -1.8619    0.0000 H   0  0  0  0  0  0  0  0  0  0  0  0
    2.3284   -1.0402    0.0000 H   0  0  0  0  0  0  0  0  0  0  0  0
  1 13  1  0  0  0  0
  2 15  1  0  0  0  0
  3 12  2  0  0  0  0
  4  7  1  0  0  0  0
  4  9  1  0  0  0  0
  4 10  1  0  0  0  0
  5  9  1  0  0  0  0
  5 11  1  0  0  0  0
  5 21  1  0  0  0  0
  6  9  2  0  0  0  0
  6 12  1  0  0  0  0
  7  8  1  0  0  0  0
  7 17  1  0  0  0  0
  7 18  1  0  0  0  0
  8 11  2  0  0  0  0
  8 13  1  0  0  0  0
 10 12  1  0  0  0  0
 10 19  1  0  0  0  0
 10 20  1  0  0  0  0
 11 14  1  0  0  0  0
 13 15  2  0  0  0  0
 14 16  2  0  0  0  0
 14 22  1  0  0  0  0
 15 16  1  0  0  0  0
 16 23  1  0  0  0  0
M  END
> <PUBCHEM_COMPOUND_CID>
2182

> <PUBCHEM_COMPOUND_CANONICALIZED>
1

> <PUBCHEM_CACTVS_COMPLEXITY>
360

> <PUBCHEM_CACTVS_HBOND_ACCEPTOR>
1

> <PUBCHEM_CACTVS_HBOND_DONOR>
1

> <PUBCHEM_CACTVS_ROTATABLE_BOND>
0

> <PUBCHEM_CACTVS_SUBSKEYS>
AAADcYBzIAAGAAAAAAAAAAAAAAAAAQAAAAA8QAAAAAAAAECxAAAAHgIQAAAADArBmCQxwIPAAACoAiVSdACCAAEhBwAJikCIZoiIYCLB2rGUIAhokALIyCcQgAAOAABAIAIDAAQAAIBABAYACAAAAAAAAA==

> <PUBCHEM_IUPAC_OPENEYE_NAME>
6,7-dichloro-5,10-dihydro-3H-imidazo[2,1-b]quinazolin-2-one

> <PUBCHEM_IUPAC_CAS_NAME>
6,7-dichloro-5,10-dihydro-3H-imidazo[2,1-b]quinazolin-2-one

> <PUBCHEM_IUPAC_NAME>
6,7-dichloro-5,10-dihydro-3H-imidazo[2,1-b]quinazolin-2-one

> <PUBCHEM_IUPAC_SYSTEMATIC_NAME>
6,7-bis(chloranyl)-5,10-dihydro-3H-imidazo[2,1-b]quinazolin-2-one

> <PUBCHEM_IUPAC_TRADITIONAL_NAME>
6,7-dichloro-5,10-dihydro-3H-imidazo[2,1-b]quinazolin-2-one

> <PUBCHEM_IUPAC_INCHI>
InChI=1S/C10H7Cl2N3O/c11-6-1-2-7-5(9(6)12)3-15-4-8(16)14-10(15)13-7/h1-2H,3-4H2,(H,13,14,16)

> <PUBCHEM_IUPAC_INCHIKEY>
OTBXOEAOVRKTNQ-UHFFFAOYSA-N

> <PUBCHEM_XLOGP3_AA>
1.6

> <PUBCHEM_EXACT_MASS>
254.996617

> <PUBCHEM_MOLECULAR_FORMULA>
C10H7Cl2N3O

> <PUBCHEM_MOLECULAR_WEIGHT>
256.08808

> <PUBCHEM_OPENEYE_CAN_SMILES>
C1C2=C(C=CC(=C2Cl)Cl)NC3=NC(=O)CN31

> <PUBCHEM_OPENEYE_ISO_SMILES>
C1C2=C(C=CC(=C2Cl)Cl)NC3=NC(=O)CN31

> <PUBCHEM_CACTVS_TPSA>
44.7

> <PUBCHEM_MONOISOTOPIC_WEIGHT>
254.996617

> <PUBCHEM_TOTAL_CHARGE>
0

> <PUBCHEM_HEAVY_ATOM_COUNT>
16

> <PUBCHEM_ATOM_DEF_STEREO_COUNT>
0

> <PUBCHEM_ATOM_UDEF_STEREO_COUNT>
0

> <PUBCHEM_BOND_DEF_STEREO_COUNT>
0

> <PUBCHEM_BOND_UDEF_STEREO_COUNT>
0

> <PUBCHEM_ISOTOPIC_ATOM_COUNT>
0

> <PUBCHEM_COMPONENT_COUNT>
1

> <PUBCHEM_CACTVS_TAUTO_COUNT>
5

> <PUBCHEM_COORDINATE_TYPE>
1
5
255

> <PUBCHEM_BONDANNOTATIONS>
11  14  8
13  15  8
14  16  8
15  16  8
8  11  8
8  13  8

$$$$
