2283
  -OEChem-12171207552D

203206  0     1  0  0  0  0  0999 V2000
   23.8985    4.9815    0.0000 S   0  0  0  0  0  0  0  0  0  0  0  0
    9.5036   -6.9066    0.0000 O   0  0  0  0  0  0  0  0  0  0  0  0
    5.7669   -6.3434    0.0000 O   0  0  0  0  0  0  0  0  0  0  0  0
   15.8131    0.1594    0.0000 O   0  0  0  0  0  0  0  0  0  0  0  0
   12.2738   -4.3363    0.0000 O   0  0  0  0  0  0  0  0  0  0  0  0
   19.2386   -0.9657    0.0000 O   0  0  0  0  0  0  0  0  0  0  0  0
   20.4947    2.4140    0.0000 O   0  0  0  0  0  0  0  0  0  0  0  0
   21.0580    3.2402    0.0000 O   0  0  0  0  0  0  0  0  0  0  0  0
   11.9914   -0.5680    0.0000 O   0  0  0  0  0  0  0  0  0  0  0  0
    3.8774   -3.0708    0.0000 O   0  0  0  0  0  0  0  0  0  0  0  0
    5.2580    0.4469    0.0000 O   0  0  0  0  0  0  0  0  0  0  0  0
   19.6269    4.2159    0.0000 O   0  0  0  0  0  0  0  0  0  0  0  0
    8.8691    1.5607    0.0000 O   0  0  0  0  0  0  0  0  0  0  0  0
   18.0664    3.4644    0.0000 O   0  0  0  0  0  0  0  0  0  0  0  0
    9.9123    1.6250    0.0000 O   0  0  0  0  0  0  0  0  0  0  0  0
    6.4911    2.9149    0.0000 O   0  0  0  0  0  0  0  0  0  0  0  0
    5.8583    1.3026    0.0000 O   0  0  0  0  0  0  0  0  0  0  0  0
    8.2200   -6.1001    0.0000 N   0  0  0  0  0  0  0  0  0  0  0  0
   17.8075    0.0100    0.0000 N   0  0  0  0  0  0  0  0  0  0  0  0
   10.8429   -4.8370    0.0000 N   0  0  0  0  0  0  0  0  0  0  0  0
   15.6837   -1.5678    0.0000 N   0  0  0  0  0  0  0  0  0  0  0  0
   20.3652    0.6867    0.0000 N   0  0  0  0  0  0  0  0  0  0  0  0
    5.5972   -4.8370    0.0000 N   0  0  0  0  0  0  0  0  0  0  0  0
   22.4891    2.2645    0.0000 N   0  0  0  0  0  0  0  0  0  0  0  0
   11.4907   -1.9989    0.0000 N   0  0  0  0  0  0  0  0  0  0  0  0
   22.2812    4.9331    0.0000 N   0  0  0  0  0  0  0  0  0  0  0  0
   22.1617    7.0182    0.0000 N   0  0  0  0  0  0  0  0  0  0  0  0
    4.9494   -1.9989    0.0000 N   0  0  0  0  0  0  0  0  0  0  0  0
    9.6756    0.2772    0.0000 N   0  0  0  0  0  0  0  0  0  0  0  0
    6.7645    0.2772    0.0000 N   0  0  0  0  0  0  0  0  0  0  0  0
   13.2309   -7.0202    0.0000 N   0  0  0  0  0  0  0  0  0  0  0  0
    2.6691   -0.6613    0.0000 N   0  0  0  0  0  0  0  0  0  0  0  0
   11.5674    2.1355    0.0000 N   0  0  0  0  0  0  0  0  0  0  0  0
    2.5000   -2.2704    0.0000 N   0  0  0  0  0  0  0  0  0  0  0  0
    6.9364   -6.9066    0.0000 C   0  0  3  0  0  0  0  0  0  0  0  0
    7.2312   -5.9511    0.0000 C   0  0  3  0  0  0  0  0  0  0  0  0
   17.6781   -1.7172    0.0000 C   0  0  3  0  0  0  0  0  0  0  0  0
   17.2442   -0.8163    0.0000 C   0  0  3  0  0  0  0  0  0  0  0  0
   10.1098   -5.5172    0.0000 C   0  0  3  0  0  0  0  0  0  0  0  0
   11.5654   -2.9961    0.0000 C   0  0  3  0  0  0  0  0  0  0  0  0
   12.5626   -3.0708    0.0000 C   0  0  0  0  0  0  0  0  0  0  0  0
    7.6166   -7.6397    0.0000 C   0  0  0  0  0  0  0  0  0  0  0  0
   21.9257    1.4382    0.0000 C   0  0  3  0  0  0  0  0  0  0  0  0
   13.1259   -2.2446    0.0000 C   0  0  0  0  0  0  0  0  0  0  0  0
   18.6753   -1.7920    0.0000 C   0  0  0  0  0  0  0  0  0  0  0  0
   19.3680    0.7615    0.0000 C   0  0  3  0  0  0  0  0  0  0  0  0
   10.6731   -6.3434    0.0000 C   0  0  0  0  0  0  0  0  0  0  0  0
   22.3596    0.5373    0.0000 C   0  0  0  0  0  0  0  0  0  0  0  0
   14.1231   -2.3193    0.0000 C   0  0  0  0  0  0  0  0  0  0  0  0
    9.2089   -5.9511    0.0000 C   0  0  0  0  0  0  0  0  0  0  0  0
    6.3302   -5.5172    0.0000 C   0  0  0  0  0  0  0  0  0  0  0  0
    5.9615   -7.1292    0.0000 C   0  0  0  0  0  0  0  0  0  0  0  0
   16.2470   -0.7415    0.0000 C   0  0  0  0  0  0  0  0  0  0  0  0
   23.3568    0.4626    0.0000 C   0  0  0  0  0  0  0  0  0  0  0  0
   14.6864   -1.4930    0.0000 C   0  0  0  0  0  0  0  0  0  0  0  0
   11.3429   -3.9710    0.0000 C   0  0  0  0  0  0  0  0  0  0  0  0
   23.8930    7.0700    0.0000 C   0  0  3  0  0  0  0  0  0  0  0  0
   17.1147   -2.5435    0.0000 C   0  0  0  0  0  0  0  0  0  0  0  0
   23.0423    6.5444    0.0000 C   0  0  3  0  0  0  0  0  0  0  0  0
   18.8047   -0.0648    0.0000 C   0  0  0  0  0  0  0  0  0  0  0  0
    5.0972   -3.9710    0.0000 C   0  0  3  0  0  0  0  0  0  0  0  0
   22.6185    3.9917    0.0000 C   0  0  3  0  0  0  0  0  0  0  0  0
   18.9341    1.6624    0.0000 C   0  0  0  0  0  0  0  0  0  0  0  0
   20.9285    1.5130    0.0000 C   0  0  0  0  0  0  0  0  0  0  0  0
   11.6704   -6.2687    0.0000 C   0  0  0  0  0  0  0  0  0  0  0  0
   23.0722    5.5448    0.0000 C   0  0  0  0  0  0  0  0  0  0  0  0
    7.3219   -8.5953    0.0000 C   0  0  0  0  0  0  0  0  0  0  0  0
   23.6181    4.0216    0.0000 C   0  0  0  0  0  0  0  0  0  0  0  0
   22.0552    3.1655    0.0000 C   0  0  0  0  0  0  0  0  0  0  0  0
   23.8631    8.0696    0.0000 C   0  0  0  0  0  0  0  0  0  0  0  0
   19.1091   -2.6929    0.0000 C   0  0  0  0  0  0  0  0  0  0  0  0
    4.1663   -4.3363    0.0000 C   0  0  0  0  0  0  0  0  0  0  0  0
   10.5018   -0.2862    0.0000 C   0  0  3  0  0  0  0  0  0  0  0  0
   23.7907   -0.4384    0.0000 C   0  0  0  0  0  0  0  0  0  0  0  0
   23.9202    1.2888    0.0000 C   0  0  0  0  0  0  0  0  0  0  0  0
   11.1253   -1.0680    0.0000 C   0  0  0  0  0  0  0  0  0  0  0  0
   24.7736    6.5962    0.0000 C   0  0  0  0  0  0  0  0  0  0  0  0
   19.4975    2.4887    0.0000 C   0  0  0  0  0  0  0  0  0  0  0  0
   12.2337   -7.0950    0.0000 C   0  0  0  0  0  0  0  0  0  0  0  0
    4.8747   -2.9961    0.0000 C   0  0  0  0  0  0  0  0  0  0  0  0
    5.3147   -1.0680    0.0000 C   0  0  3  0  0  0  0  0  0  0  0  0
   24.7138    8.5953    0.0000 C   0  0  0  0  0  0  0  0  0  0  0  0
    4.0173   -5.3252    0.0000 C   0  0  0  0  0  0  0  0  0  0  0  0
   11.1820    0.4469    0.0000 C   0  0  0  0  0  0  0  0  0  0  0  0
    7.7200    0.5719    0.0000 C   0  0  3  0  0  0  0  0  0  0  0  0
    4.4487   -0.5680    0.0000 C   0  0  0  0  0  0  0  0  0  0  0  0
    5.9382   -0.2862    0.0000 C   0  0  0  0  0  0  0  0  0  0  0  0
    8.7200    0.5719    0.0000 C   0  0  0  0  0  0  0  0  0  0  0  0
   19.0636    3.3896    0.0000 C   0  0  0  0  0  0  0  0  0  0  0  0
    7.5710    1.5607    0.0000 C   0  0  0  0  0  0  0  0  0  0  0  0
    3.5827   -1.0680    0.0000 C   0  0  0  0  0  0  0  0  0  0  0  0
    3.0864   -5.6905    0.0000 C   0  0  0  0  0  0  0  0  0  0  0  0
    4.7991   -5.9487    0.0000 C   0  0  0  0  0  0  0  0  0  0  0  0
   10.8873    1.4025    0.0000 C   0  0  0  0  0  0  0  0  0  0  0  0
    2.9373   -6.6793    0.0000 C   0  0  0  0  0  0  0  0  0  0  0  0
    4.6500   -6.9375    0.0000 C   0  0  0  0  0  0  0  0  0  0  0  0
    3.4782   -2.0625    0.0000 C   0  0  0  0  0  0  0  0  0  0  0  0
    6.6401    1.9261    0.0000 C   0  0  0  0  0  0  0  0  0  0  0  0
    3.7192   -7.3028    0.0000 C   0  0  0  0  0  0  0  0  0  0  0  0
    2.0000   -1.4044    0.0000 C   0  0  0  0  0  0  0  0  0  0  0  0
    6.7537   -7.4991    0.0000 H   0  0  0  0  0  0  0  0  0  0  0  0
    7.5611   -6.4760    0.0000 H   0  0  0  0  0  0  0  0  0  0  0  0
   17.9471   -2.2758    0.0000 H   0  0  0  0  0  0  0  0  0  0  0  0
   16.9752   -0.2577    0.0000 H   0  0  0  0  0  0  0  0  0  0  0  0
   10.7259   -5.5866    0.0000 H   0  0  0  0  0  0  0  0  0  0  0  0
   12.0038   -2.5577    0.0000 H   0  0  0  0  0  0  0  0  0  0  0  0
   12.4096   -3.6716    0.0000 H   0  0  0  0  0  0  0  0  0  0  0  0
   13.1277   -3.3258    0.0000 H   0  0  0  0  0  0  0  0  0  0  0  0
    8.1683   -7.9226    0.0000 H   0  0  0  0  0  0  0  0  0  0  0  0
    7.9910   -7.1455    0.0000 H   0  0  0  0  0  0  0  0  0  0  0  0
   22.5440    1.3919    0.0000 H   0  0  0  0  0  0  0  0  0  0  0  0
   13.2789   -1.6437    0.0000 H   0  0  0  0  0  0  0  0  0  0  0  0
   12.5608   -1.9896    0.0000 H   0  0  0  0  0  0  0  0  0  0  0  0
    8.2200   -6.7201    0.0000 H   0  0  0  0  0  0  0  0  0  0  0  0
   19.2721   -1.6240    0.0000 H   0  0  0  0  0  0  0  0  0  0  0  0
   18.6135   -1.1751    0.0000 H   0  0  0  0  0  0  0  0  0  0  0  0
   19.7173    1.2737    0.0000 H   0  0  0  0  0  0  0  0  0  0  0  0
   10.1080   -6.5984    0.0000 H   0  0  0  0  0  0  0  0  0  0  0  0
   10.8261   -6.9443    0.0000 H   0  0  0  0  0  0  0  0  0  0  0  0
   21.7628    0.3694    0.0000 H   0  0  0  0  0  0  0  0  0  0  0  0
   22.4214   -0.0796    0.0000 H   0  0  0  0  0  0  0  0  0  0  0  0
   13.9701   -2.9201    0.0000 H   0  0  0  0  0  0  0  0  0  0  0  0
   14.6883   -2.5743    0.0000 H   0  0  0  0  0  0  0  0  0  0  0  0
   17.5385    0.5686    0.0000 H   0  0  0  0  0  0  0  0  0  0  0  0
    5.8236   -6.5247    0.0000 H   0  0  0  0  0  0  0  0  0  0  0  0
    5.3571   -7.2671    0.0000 H   0  0  0  0  0  0  0  0  0  0  0  0
    6.0995   -7.7336    0.0000 H   0  0  0  0  0  0  0  0  0  0  0  0
   23.0878    1.0212    0.0000 H   0  0  0  0  0  0  0  0  0  0  0  0
   11.3276   -5.2236    0.0000 H   0  0  0  0  0  0  0  0  0  0  0  0
   14.8394   -0.8922    0.0000 H   0  0  0  0  0  0  0  0  0  0  0  0
   14.1213   -1.2381    0.0000 H   0  0  0  0  0  0  0  0  0  0  0  0
   23.9116    6.4503    0.0000 H   0  0  0  0  0  0  0  0  0  0  0  0
   16.6025   -2.1942    0.0000 H   0  0  0  0  0  0  0  0  0  0  0  0
   16.7655   -3.0558    0.0000 H   0  0  0  0  0  0  0  0  0  0  0  0
   17.6270   -2.8927    0.0000 H   0  0  0  0  0  0  0  0  0  0  0  0
   23.0238    7.1641    0.0000 H   0  0  0  0  0  0  0  0  0  0  0  0
    4.8924   -4.5562    0.0000 H   0  0  0  0  0  0  0  0  0  0  0  0
   22.0035    4.0703    0.0000 H   0  0  0  0  0  0  0  0  0  0  0  0
   18.4903    2.0954    0.0000 H   0  0  0  0  0  0  0  0  0  0  0  0
   18.4307    1.3005    0.0000 H   0  0  0  0  0  0  0  0  0  0  0  0
   12.2355   -6.0137    0.0000 H   0  0  0  0  0  0  0  0  0  0  0  0
   11.5174   -5.6679    0.0000 H   0  0  0  0  0  0  0  0  0  0  0  0
   15.9527   -2.1264    0.0000 H   0  0  0  0  0  0  0  0  0  0  0  0
   20.6342    0.1281    0.0000 H   0  0  0  0  0  0  0  0  0  0  0  0
    5.1124   -5.2236    0.0000 H   0  0  0  0  0  0  0  0  0  0  0  0
   23.1073    2.2182    0.0000 H   0  0  0  0  0  0  0  0  0  0  0  0
   12.0951   -1.8609    0.0000 H   0  0  0  0  0  0  0  0  0  0  0  0
    6.7294   -8.4125    0.0000 H   0  0  0  0  0  0  0  0  0  0  0  0
    7.1391   -9.1877    0.0000 H   0  0  0  0  0  0  0  0  0  0  0  0
    7.9143   -8.7780    0.0000 H   0  0  0  0  0  0  0  0  0  0  0  0
   23.5717    3.4034    0.0000 H   0  0  0  0  0  0  0  0  0  0  0  0
   24.2281    3.9109    0.0000 H   0  0  0  0  0  0  0  0  0  0  0  0
   23.6337    8.6456    0.0000 H   0  0  0  0  0  0  0  0  0  0  0  0
   23.2560    7.9437    0.0000 H   0  0  0  0  0  0  0  0  0  0  0  0
   18.5505   -2.9620    0.0000 H   0  0  0  0  0  0  0  0  0  0  0  0
   19.3782   -3.2515    0.0000 H   0  0  0  0  0  0  0  0  0  0  0  0
   19.6677   -2.4239    0.0000 H   0  0  0  0  0  0  0  0  0  0  0  0
    4.0434   -3.7286    0.0000 H   0  0  0  0  0  0  0  0  0  0  0  0
    3.5465   -4.3518    0.0000 H   0  0  0  0  0  0  0  0  0  0  0  0
   10.4324    0.3299    0.0000 H   0  0  0  0  0  0  0  0  0  0  0  0
   23.2321   -0.7074    0.0000 H   0  0  0  0  0  0  0  0  0  0  0  0
   24.0597   -0.9970    0.0000 H   0  0  0  0  0  0  0  0  0  0  0  0
   24.3493   -0.1694    0.0000 H   0  0  0  0  0  0  0  0  0  0  0  0
   24.4324    0.9395    0.0000 H   0  0  0  0  0  0  0  0  0  0  0  0
   24.2694    1.8011    0.0000 H   0  0  0  0  0  0  0  0  0  0  0  0
   23.4079    1.6380    0.0000 H   0  0  0  0  0  0  0  0  0  0  0  0
   24.4798    6.0502    0.0000 H   0  0  0  0  0  0  0  0  0  0  0  0
   25.3196    6.3024    0.0000 H   0  0  0  0  0  0  0  0  0  0  0  0
   25.0674    7.1421    0.0000 H   0  0  0  0  0  0  0  0  0  0  0  0
   19.9413    2.0558    0.0000 H   0  0  0  0  0  0  0  0  0  0  0  0
   20.0009    2.8506    0.0000 H   0  0  0  0  0  0  0  0  0  0  0  0
   11.6685   -7.3499    0.0000 H   0  0  0  0  0  0  0  0  0  0  0  0
   12.3867   -7.6958    0.0000 H   0  0  0  0  0  0  0  0  0  0  0  0
    4.7295   -1.2728    0.0000 H   0  0  0  0  0  0  0  0  0  0  0  0
   22.1432    7.6380    0.0000 H   0  0  0  0  0  0  0  0  0  0  0  0
   21.6343    6.6923    0.0000 H   0  0  0  0  0  0  0  0  0  0  0  0
    4.3449   -1.8609    0.0000 H   0  0  0  0  0  0  0  0  0  0  0  0
   25.0397    8.0679    0.0000 H   0  0  0  0  0  0  0  0  0  0  0  0
   25.2412    8.9212    0.0000 H   0  0  0  0  0  0  0  0  0  0  0  0
   24.3878    9.1227    0.0000 H   0  0  0  0  0  0  0  0  0  0  0  0
   11.5564   -0.0473    0.0000 H   0  0  0  0  0  0  0  0  0  0  0  0
   11.7337    0.7297    0.0000 H   0  0  0  0  0  0  0  0  0  0  0  0
    7.1951    0.9018    0.0000 H   0  0  0  0  0  0  0  0  0  0  0  0
    9.9446    0.8358    0.0000 H   0  0  0  0  0  0  0  0  0  0  0  0
    4.8472   -0.0930    0.0000 H   0  0  0  0  0  0  0  0  0  0  0  0
    4.0502   -0.0930    0.0000 H   0  0  0  0  0  0  0  0  0  0  0  0
    6.4954    0.8358    0.0000 H   0  0  0  0  0  0  0  0  0  0  0  0
   13.5801   -7.5325    0.0000 H   0  0  0  0  0  0  0  0  0  0  0  0
   13.4999   -6.4616    0.0000 H   0  0  0  0  0  0  0  0  0  0  0  0
    8.1908    1.5453    0.0000 H   0  0  0  0  0  0  0  0  0  0  0  0
    7.6938    2.1684    0.0000 H   0  0  0  0  0  0  0  0  0  0  0  0
    2.6016   -5.3040    0.0000 H   0  0  0  0  0  0  0  0  0  0  0  0
    5.3762   -5.7222    0.0000 H   0  0  0  0  0  0  0  0  0  0  0  0
    2.3602   -6.9059    0.0000 H   0  0  0  0  0  0  0  0  0  0  0  0
    5.1348   -7.3241    0.0000 H   0  0  0  0  0  0  0  0  0  0  0  0
    2.5402   -0.0548    0.0000 H   0  0  0  0  0  0  0  0  0  0  0  0
    3.9389   -2.4774    0.0000 H   0  0  0  0  0  0  0  0  0  0  0  0
    3.6268   -7.9159    0.0000 H   0  0  0  0  0  0  0  0  0  0  0  0
   19.3579    4.7745    0.0000 H   0  0  0  0  0  0  0  0  0  0  0  0
   11.3847    2.7280    0.0000 H   0  0  0  0  0  0  0  0  0  0  0  0
   12.1719    1.9976    0.0000 H   0  0  0  0  0  0  0  0  0  0  0  0
    1.3834   -1.3396    0.0000 H   0  0  0  0  0  0  0  0  0  0  0  0
    5.9139    3.1414    0.0000 H   0  0  0  0  0  0  0  0  0  0  0  0
  1 66  1  0  0  0  0
  1 68  1  0  0  0  0
  2 50  2  0  0  0  0
  3 51  2  0  0  0  0
  4 53  2  0  0  0  0
  5 56  2  0  0  0  0
  6 60  2  0  0  0  0
  7 64  2  0  0  0  0
  8 69  2  0  0  0  0
  9 76  2  0  0  0  0
 10 80  2  0  0  0  0
 11 87  2  0  0  0  0
 12 89  1  0  0  0  0
 12199  1  0  0  0  0
 13 88  2  0  0  0  0
 14 89  2  0  0  0  0
 15 94  2  0  0  0  0
 16 98  1  0  0  0  0
 16203  1  0  0  0  0
 17 98  2  0  0  0  0
 18 36  1  0  0  0  0
 18 50  1  0  0  0  0
 18114  1  0  0  0  0
 19 38  1  0  0  0  0
 19 60  1  0  0  0  0
 19124  1  0  0  0  0
 20 39  1  0  0  0  0
 20 56  1  0  0  0  0
 20129  1  0  0  0  0
 21 53  1  0  0  0  0
 21 55  1  0  0  0  0
 21143  1  0  0  0  0
 22 46  1  0  0  0  0
 22 64  1  0  0  0  0
 22144  1  0  0  0  0
 23 51  1  0  0  0  0
 23 61  1  0  0  0  0
 23145  1  0  0  0  0
 24 43  1  0  0  0  0
 24 69  1  0  0  0  0
 24146  1  0  0  0  0
 25 40  1  0  0  0  0
 25 76  1  0  0  0  0
 25147  1  0  0  0  0
 26 62  1  0  0  0  0
 26 66  2  0  0  0  0
 27 59  1  0  0  0  0
 27175  1  0  0  0  0
 27176  1  0  0  0  0
 28 80  1  0  0  0  0
 28 81  1  0  0  0  0
 28177  1  0  0  0  0
 29 73  1  0  0  0  0
 29 88  1  0  0  0  0
 29184  1  0  0  0  0
 30 85  1  0  0  0  0
 30 87  1  0  0  0  0
 30187  1  0  0  0  0
 31 79  1  0  0  0  0
 31188  1  0  0  0  0
 31189  1  0  0  0  0
 32 91  1  0  0  0  0
 32100  1  0  0  0  0
 32196  1  0  0  0  0
 33 94  1  0  0  0  0
 33200  1  0  0  0  0
 33201  1  0  0  0  0
 34 97  1  0  0  0  0
 34100  2  0  0  0  0
 35 36  1  0  0  0  0
 35 42  1  0  0  0  0
 35 52  1  0  0  0  0
 35101  1  0  0  0  0
 36 51  1  0  0  0  0
 36102  1  0  0  0  0
 37 38  1  0  0  0  0
 37 45  1  0  0  0  0
 37 58  1  0  0  0  0
 37103  1  0  0  0  0
 38 53  1  0  0  0  0
 38104  1  0  0  0  0
 39 47  1  0  0  0  0
 39 50  1  0  0  0  0
 39105  1  0  0  0  0
 40 41  1  0  0  0  0
 40 56  1  0  0  0  0
 40106  1  0  0  0  0
 41 44  1  0  0  0  0
 41107  1  0  0  0  0
 41108  1  0  0  0  0
 42 67  1  0  0  0  0
 42109  1  0  0  0  0
 42110  1  0  0  0  0
 43 48  1  0  0  0  0
 43 64  1  0  0  0  0
 43111  1  0  0  0  0
 44 49  1  0  0  0  0
 44112  1  0  0  0  0
 44113  1  0  0  0  0
 45 71  1  0  0  0  0
 45115  1  0  0  0  0
 45116  1  0  0  0  0
 46 60  1  0  0  0  0
 46 63  1  0  0  0  0
 46117  1  0  0  0  0
 47 65  1  0  0  0  0
 47118  1  0  0  0  0
 47119  1  0  0  0  0
 48 54  1  0  0  0  0
 48120  1  0  0  0  0
 48121  1  0  0  0  0
 49 55  1  0  0  0  0
 49122  1  0  0  0  0
 49123  1  0  0  0  0
 52125  1  0  0  0  0
 52126  1  0  0  0  0
 52127  1  0  0  0  0
 54 74  1  0  0  0  0
 54 75  1  0  0  0  0
 54128  1  0  0  0  0
 55130  1  0  0  0  0
 55131  1  0  0  0  0
 57 59  1  0  0  0  0
 57 70  1  0  0  0  0
 57 77  1  0  0  0  0
 57132  1  0  0  0  0
 58133  1  0  0  0  0
 58134  1  0  0  0  0
 58135  1  0  0  0  0
 59 66  1  0  0  0  0
 59136  1  0  0  0  0
 61 72  1  0  0  0  0
 61 80  1  0  0  0  0
 61137  1  0  0  0  0
 62 68  1  0  0  0  0
 62 69  1  0  0  0  0
 62138  1  0  0  0  0
 63 78  1  0  0  0  0
 63139  1  0  0  0  0
 63140  1  0  0  0  0
 65 79  1  0  0  0  0
 65141  1  0  0  0  0
 65142  1  0  0  0  0
 67148  1  0  0  0  0
 67149  1  0  0  0  0
 67150  1  0  0  0  0
 68151  1  0  0  0  0
 68152  1  0  0  0  0
 70 82  1  0  0  0  0
 70153  1  0  0  0  0
 70154  1  0  0  0  0
 71155  1  0  0  0  0
 71156  1  0  0  0  0
 71157  1  0  0  0  0
 72 83  1  0  0  0  0
 72158  1  0  0  0  0
 72159  1  0  0  0  0
 73 76  1  0  0  0  0
 73 84  1  0  0  0  0
 73160  1  0  0  0  0
 74161  1  0  0  0  0
 74162  1  0  0  0  0
 74163  1  0  0  0  0
 75164  1  0  0  0  0
 75165  1  0  0  0  0
 75166  1  0  0  0  0
 77167  1  0  0  0  0
 77168  1  0  0  0  0
 77169  1  0  0  0  0
 78 89  1  0  0  0  0
 78170  1  0  0  0  0
 78171  1  0  0  0  0
 79172  1  0  0  0  0
 79173  1  0  0  0  0
 81 86  1  0  0  0  0
 81 87  1  0  0  0  0
 81174  1  0  0  0  0
 82178  1  0  0  0  0
 82179  1  0  0  0  0
 82180  1  0  0  0  0
 83 92  2  0  0  0  0
 83 93  1  0  0  0  0
 84 94  1  0  0  0  0
 84181  1  0  0  0  0
 84182  1  0  0  0  0
 85 88  1  0  0  0  0
 85 90  1  0  0  0  0
 85183  1  0  0  0  0
 86 91  1  0  0  0  0
 86185  1  0  0  0  0
 86186  1  0  0  0  0
 90 98  1  0  0  0  0
 90190  1  0  0  0  0
 90191  1  0  0  0  0
 91 97  2  0  0  0  0
 92 95  1  0  0  0  0
 92192  1  0  0  0  0
 93 96  2  0  0  0  0
 93193  1  0  0  0  0
 95 99  2  0  0  0  0
 95194  1  0  0  0  0
 96 99  1  0  0  0  0
 96195  1  0  0  0  0
 97197  1  0  0  0  0
 99198  1  0  0  0  0
100202  1  0  0  0  0
M  END
> <PUBCHEM_COMPOUND_CID>
2283

> <PUBCHEM_COMPOUND_CANONICALIZED>
1

> <PUBCHEM_CACTVS_COMPLEXITY>
2850

> <PUBCHEM_CACTVS_HBOND_ACCEPTOR>
21

> <PUBCHEM_CACTVS_HBOND_DONOR>
17

> <PUBCHEM_CACTVS_ROTATABLE_BOND>
35

> <PUBCHEM_CACTVS_SUBSKEYS>
AAADcfB//gBAAAAAAAAAAAAAAAAAAWIAAAAwAAAAAAAAAAABwAAAHgQQCAAADSjF3gS/mJbJkgioAzX3fAACkC2xErAJ2YG4cIiIaDrg2TGUYAAulgLoyCe/n4KOAAAAAAAAAAAAAAAAAAAAAAAAAAAAAA==

> <PUBCHEM_IUPAC_OPENEYE_NAME>
4-[[2-[[2-(1-amino-2-methyl-butyl)-4,5-dihydrothiazole-4-carbonyl]amino]-4-methyl-pentanoyl]amino]-5-[[1-[4-[20-(2-amino-2-oxo-ethyl)-5-(3-aminopropyl)-11-benzyl-17-(carboxymethyl)-14-(1H-imidazol-5-ylmethyl)-3,6,9,12,15,18,21-heptaoxo-8-sec-butyl-1,4,7,10,13,16,19-heptazacyclohenicos-2-yl]butylcarbamoyl]-2-methyl-butyl]amino]-5-oxo-pentanoic acid

> <PUBCHEM_IUPAC_CAS_NAME>
4-[[2-[[[2-(1-amino-2-methylbutyl)-4,5-dihydrothiazol-4-yl]-oxomethyl]amino]-4-methyl-1-oxopentyl]amino]-5-[[1-[4-[20-(2-amino-2-oxoethyl)-5-(3-aminopropyl)-8-butan-2-yl-17-(carboxymethyl)-14-(1H-imidazol-5-ylmethyl)-3,6,9,12,15,18,21-heptaoxo-11-(phenylmethyl)-1,4,7,10,13,16,19-heptazacycloheneicos-2-yl]butylamino]-3-methyl-1-oxopentan-2-yl]amino]-5-oxopentanoic acid

> <PUBCHEM_IUPAC_NAME>
4-[[2-[[2-(1-amino-2-methylbutyl)-4,5-dihydro-1,3-thiazole-4-carbonyl]amino]-4-methylpentanoyl]amino]-5-[[1-[4-[20-(2-amino-2-oxoethyl)-5-(3-aminopropyl)-11-benzyl-8-butan-2-yl-17-(carboxymethyl)-14-(1H-imidazol-5-ylmethyl)-3,6,9,12,15,18,21-heptaoxo-1,4,7,10,13,16,19-heptazacyclohenicos-2-yl]butylamino]-3-methyl-1-oxopentan-2-yl]amino]-5-oxopentanoic acid

> <PUBCHEM_IUPAC_SYSTEMATIC_NAME>
4-[[2-[[2-(1-azanyl-2-methyl-butyl)-4,5-dihydro-1,3-thiazol-4-yl]carbonylamino]-4-methyl-pentanoyl]amino]-5-[[1-[4-[20-(2-azanyl-2-oxidanylidene-ethyl)-5-(3-azanylpropyl)-8-butan-2-yl-17-(2-hydroxy-2-oxoethyl)-14-(1H-imidazol-5-ylmethyl)-3,6,9,12,15,18,21-heptakis(oxidanylidene)-11-(phenylmethyl)-1,4,7,10,13,16,19-heptazacyclohenicos-2-yl]butylamino]-3-methyl-1-oxidanylidene-pentan-2-yl]amino]-5-oxidanylidene-pentanoic acid

> <PUBCHEM_IUPAC_TRADITIONAL_NAME>
5-[[1-[4-[20-(2-amino-2-keto-ethyl)-5-(3-aminopropyl)-11-benzyl-17-(carboxymethyl)-14-(1H-imidazol-5-ylmethyl)-3,6,9,12,15,18,21-heptaketo-8-sec-butyl-1,4,7,10,13,16,19-heptazacycloheneicos-2-yl]butylcarbamoyl]-2-methyl-butyl]amino]-4-[[2-[[2-(1-amino-2-methyl-butyl)-2-thiazoline-4-carbonyl]amino]-4-methyl-pentanoyl]amino]-5-keto-valeric acid

> <PUBCHEM_IUPAC_INCHI>
InChI=1S/C66H103N17O16S/c1-9-35(6)52(69)66-81-48(32-100-66)63(97)76-43(26-34(4)5)58(92)75-42(22-23-50(85)86)57(91)82-53(36(7)10-2)64(98)71-25-16-15-20-40-55(89)73-41(21-17-24-67)56(90)83-54(37(8)11-3)65(99)80-44(27-38-18-13-12-14-19-38)59(93)77-45(28-39-31-70-33-72-39)60(94)79-47(30-51(87)88)62(96)78-46(29-49(68)84)61(95)74-40/h12-14,18-19,31,33-37,40-48,52-54H,9-11,15-17,20-30,32,67,69H2,1-8H3,(H2,68,84)(H,70,72)(H,71,98)(H,73,89)(H,74,95)(H,75,92)(H,76,97)(H,77,93)(H,78,96)(H,79,94)(H,80,99)(H,82,91)(H,83,90)(H,85,86)(H,87,88)

> <PUBCHEM_IUPAC_INCHIKEY>
VRKHYMXTJQCIND-UHFFFAOYSA-N

> <PUBCHEM_XLOGP3_AA>
-4.1

> <PUBCHEM_EXACT_MASS>
1421.748941

> <PUBCHEM_MOLECULAR_FORMULA>
C66H103N17O16S

> <PUBCHEM_MOLECULAR_WEIGHT>
1422.69332

> <PUBCHEM_OPENEYE_CAN_SMILES>
CCC(C)C1C(=O)NC(C(=O)NC(C(=O)NC(C(=O)NC(C(=O)NC(C(=O)NC(C(=O)N1)CCCN)CCCCNC(=O)C(C(C)CC)NC(=O)C(CCC(=O)O)NC(=O)C(CC(C)C)NC(=O)C2CSC(=N2)C(C(C)CC)N)CC(=O)N)CC(=O)O)CC3=CN=CN3)CC4=CC=CC=C4

> <PUBCHEM_OPENEYE_ISO_SMILES>
CCC(C)C1C(=O)NC(C(=O)NC(C(=O)NC(C(=O)NC(C(=O)NC(C(=O)NC(C(=O)N1)CCCN)CCCCNC(=O)C(C(C)CC)NC(=O)C(CCC(=O)O)NC(=O)C(CC(C)C)NC(=O)C2CSC(=N2)C(C(C)CC)N)CC(=O)N)CC(=O)O)CC3=CN=CN3)CC4=CC=CC=C4

> <PUBCHEM_CACTVS_TPSA>
556

> <PUBCHEM_MONOISOTOPIC_WEIGHT>
1421.748941

> <PUBCHEM_TOTAL_CHARGE>
0

> <PUBCHEM_HEAVY_ATOM_COUNT>
100

> <PUBCHEM_ATOM_DEF_STEREO_COUNT>
0

> <PUBCHEM_ATOM_UDEF_STEREO_COUNT>
15

> <PUBCHEM_BOND_DEF_STEREO_COUNT>
0

> <PUBCHEM_BOND_UDEF_STEREO_COUNT>
0

> <PUBCHEM_ISOTOPIC_ATOM_COUNT>
0

> <PUBCHEM_COMPONENT_COUNT>
1

> <PUBCHEM_CACTVS_TAUTO_COUNT>
1001

> <PUBCHEM_COORDINATE_TYPE>
1
5
255

> <PUBCHEM_BONDANNOTATIONS>
59  27  3
32  100  8
32  91  8
34  100  8
34  97  8
35  52  3
36  51  3
37  58  3
38  53  3
39  47  3
40  41  3
43  48  3
46  63  3
57  77  3
61  72  3
62  69  3
73  84  3
81  86  3
83  92  8
83  93  8
85  90  3
91  97  8
92  95  8
93  96  8
95  99  8
96  99  8

$$$$
