2476
  -OEChem-12171207552D

 75 81  0     1  0  0  0  0  0999 V2000
    5.0395   -2.4827    0.0000 O   0  0  0  0  0  0  0  0  0  0  0  0
    7.7466   -2.4600    0.0000 O   0  0  0  0  0  0  0  0  0  0  0  0
    5.4463   -3.0758    0.0000 O   0  0  0  0  0  0  0  0  0  0  0  0
    2.6200   -2.6833    0.0000 O   0  0  0  0  0  0  0  0  0  0  0  0
    6.0154    1.5260    0.0000 N   0  0  3  0  0  0  0  0  0  0  0  0
    6.0154   -0.1456    0.0000 C   0  0  3  0  0  0  0  0  0  0  0  0
    5.5328   -0.9814    0.0000 C   0  0  3  0  0  0  0  0  0  0  0  0
    6.9805   -1.8172    0.0000 C   0  0  3  0  0  0  0  0  0  0  0  0
    6.0154   -1.8172    0.0000 C   0  0  3  0  0  0  0  0  0  0  0  0
    6.3478   -1.3246    0.0000 C   0  0  3  0  0  0  0  0  0  0  0  0
    6.7124   -0.5954    0.0000 C   0  0  0  0  0  0  0  0  0  0  0  0
    5.5328    0.6902    0.0000 C   0  0  3  0  0  0  0  0  0  0  0  0
    6.9805   -0.1456    0.0000 C   0  0  0  0  0  0  0  0  0  0  0  0
    7.4631   -0.9814    0.0000 C   0  0  0  0  0  0  0  0  0  0  0  0
    5.0503   -0.1456    0.0000 C   0  0  0  0  0  0  0  0  0  0  0  0
    4.5677   -0.9814    0.0000 C   0  0  0  0  0  0  0  0  0  0  0  0
    4.5677    0.6902    0.0000 C   0  0  0  0  0  0  0  0  0  0  0  0
    5.7426   -2.1206    0.0000 C   0  0  3  0  0  0  0  0  0  0  0  0
    5.0395    1.6995    0.0000 C   0  0  0  0  0  0  0  0  0  0  0  0
    4.0851   -0.1456    0.0000 C   0  0  0  0  0  0  0  0  0  0  0  0
    4.0851   -1.8172    0.0000 C   0  0  0  0  0  0  0  0  0  0  0  0
    6.9220    1.9480    0.0000 C   0  0  0  0  0  0  0  0  0  0  0  0
    6.2840   -2.9617    0.0000 C   0  0  0  0  0  0  0  0  0  0  0  0
    7.0098    2.9442    0.0000 C   0  0  0  0  0  0  0  0  0  0  0  0
    4.9466   -1.5156    0.0000 C   0  0  0  0  0  0  0  0  0  0  0  0
    3.1200   -0.1456    0.0000 C   0  0  0  0  0  0  0  0  0  0  0  0
    3.1200   -1.8172    0.0000 C   0  0  0  0  0  0  0  0  0  0  0  0
    7.5840    3.7630    0.0000 C   0  0  0  0  0  0  0  0  0  0  0  0
    6.5878    3.8508    0.0000 C   0  0  0  0  0  0  0  0  0  0  0  0
    8.6863   -2.1180    0.0000 C   0  0  0  0  0  0  0  0  0  0  0  0
    2.6374   -0.9814    0.0000 C   0  0  0  0  0  0  0  0  0  0  0  0
    6.8252   -3.8026    0.0000 C   0  0  0  0  0  0  0  0  0  0  0  0
    7.2828   -2.9132    0.0000 C   0  0  0  0  0  0  0  0  0  0  0  0
    5.8264   -3.8508    0.0000 C   0  0  0  0  0  0  0  0  0  0  0  0
    6.1982   -2.4097    0.0000 H   0  0  0  0  0  0  0  0  0  0  0  0
    5.8215   -0.9969    0.0000 H   0  0  0  0  0  0  0  0  0  0  0  0
    7.2565   -0.8927    0.0000 H   0  0  0  0  0  0  0  0  0  0  0  0
    7.0294   -0.0625    0.0000 H   0  0  0  0  0  0  0  0  0  0  0  0
    6.1528    0.6902    0.0000 H   0  0  0  0  0  0  0  0  0  0  0  0
    7.5631    0.0665    0.0000 H   0  0  0  0  0  0  0  0  0  0  0  0
    6.8728    0.4650    0.0000 H   0  0  0  0  0  0  0  0  0  0  0  0
    7.9380   -1.3799    0.0000 H   0  0  0  0  0  0  0  0  0  0  0  0
    7.9380   -0.5829    0.0000 H   0  0  0  0  0  0  0  0  0  0  0  0
    4.4668    0.0642    0.0000 H   0  0  0  0  0  0  0  0  0  0  0  0
    5.6487    0.0166    0.0000 H   0  0  0  0  0  0  0  0  0  0  0  0
    4.6754    1.3008    0.0000 H   0  0  0  0  0  0  0  0  0  0  0  0
    3.9851    0.9023    0.0000 H   0  0  0  0  0  0  0  0  0  0  0  0
    5.1109    2.3154    0.0000 H   0  0  0  0  0  0  0  0  0  0  0  0
    4.4205    1.7334    0.0000 H   0  0  0  0  0  0  0  0  0  0  0  0
    7.0820    1.3491    0.0000 H   0  0  0  0  0  0  0  0  0  0  0  0
    7.5397    2.0017    0.0000 H   0  0  0  0  0  0  0  0  0  0  0  0
    7.5923    2.7317    0.0000 H   0  0  0  0  0  0  0  0  0  0  0  0
    5.3217   -1.0220    0.0000 H   0  0  0  0  0  0  0  0  0  0  0  0
    4.4530   -1.1405    0.0000 H   0  0  0  0  0  0  0  0  0  0  0  0
    4.5714   -2.0092    0.0000 H   0  0  0  0  0  0  0  0  0  0  0  0
    2.8100    0.3913    0.0000 H   0  0  0  0  0  0  0  0  0  0  0  0
    4.8415   -3.2127    0.0000 H   0  0  0  0  0  0  0  0  0  0  0  0
    8.1457    3.5005    0.0000 H   0  0  0  0  0  0  0  0  0  0  0  0
    7.7448    4.3617    0.0000 H   0  0  0  0  0  0  0  0  0  0  0  0
    6.5342    4.4685    0.0000 H   0  0  0  0  0  0  0  0  0  0  0  0
    5.9888    3.6907    0.0000 H   0  0  0  0  0  0  0  0  0  0  0  0
    8.8983   -2.7006    0.0000 H   0  0  0  0  0  0  0  0  0  0  0  0
    9.2689   -1.9060    0.0000 H   0  0  0  0  0  0  0  0  0  0  0  0
    8.4742   -1.5354    0.0000 H   0  0  0  0  0  0  0  0  0  0  0  0
    2.0174   -0.9814    0.0000 H   0  0  0  0  0  0  0  0  0  0  0  0
    6.3038   -4.1381    0.0000 H   0  0  0  0  0  0  0  0  0  0  0  0
    7.1607   -4.3239    0.0000 H   0  0  0  0  0  0  0  0  0  0  0  0
    7.3465   -3.4670    0.0000 H   0  0  0  0  0  0  0  0  0  0  0  0
    7.3128   -3.5325    0.0000 H   0  0  0  0  0  0  0  0  0  0  0  0
    7.9021   -2.8832    0.0000 H   0  0  0  0  0  0  0  0  0  0  0  0
    7.2528   -2.2940    0.0000 H   0  0  0  0  0  0  0  0  0  0  0  0
    5.2751   -3.5671    0.0000 H   0  0  0  0  0  0  0  0  0  0  0  0
    5.5427   -4.4021    0.0000 H   0  0  0  0  0  0  0  0  0  0  0  0
    6.3777   -4.1345    0.0000 H   0  0  0  0  0  0  0  0  0  0  0  0
    2.0000   -2.6833    0.0000 H   0  0  0  0  0  0  0  0  0  0  0  0
  1  9  1  0  0  0  0
  1 21  1  0  0  0  0
  2  8  1  0  0  0  0
  2 30  1  0  0  0  0
  3 18  1  0  0  0  0
  3 57  1  0  0  0  0
  4 27  1  0  0  0  0
  4 75  1  0  0  0  0
  5 12  1  0  0  0  0
  5 19  1  0  0  0  0
  5 22  1  0  0  0  0
  6  7  1  0  0  0  0
  6 11  1  0  0  0  0
  6 12  1  0  0  0  0
  6 13  1  0  0  0  0
  7  9  1  0  0  0  0
  7 15  1  0  0  0  0
  7 16  1  0  0  0  0
  8  9  1  0  0  0  0
  8 10  1  0  0  0  0
  8 14  1  0  0  0  0
  9 35  1  0  0  0  0
 10 11  1  0  0  0  0
 10 18  1  0  0  0  0
 10 36  1  0  0  0  0
 11 37  1  0  0  0  0
 11 38  1  0  0  0  0
 12 17  1  0  0  0  0
 12 39  1  0  0  0  0
 13 14  1  0  0  0  0
 13 40  1  0  0  0  0
 13 41  1  0  0  0  0
 14 42  1  0  0  0  0
 14 43  1  0  0  0  0
 15 19  1  0  0  0  0
 15 44  1  0  0  0  0
 15 45  1  0  0  0  0
 16 20  2  0  0  0  0
 16 21  1  0  0  0  0
 17 20  1  0  0  0  0
 17 46  1  0  0  0  0
 17 47  1  0  0  0  0
 18 23  1  0  0  0  0
 18 25  1  0  0  0  0
 19 48  1  0  0  0  0
 19 49  1  0  0  0  0
 20 26  1  0  0  0  0
 21 27  2  0  0  0  0
 22 24  1  0  0  0  0
 22 50  1  0  0  0  0
 22 51  1  0  0  0  0
 23 32  1  0  0  0  0
 23 33  1  0  0  0  0
 23 34  1  0  0  0  0
 24 28  1  0  0  0  0
 24 29  1  0  0  0  0
 24 52  1  0  0  0  0
 25 53  1  0  0  0  0
 25 54  1  0  0  0  0
 25 55  1  0  0  0  0
 26 31  2  0  0  0  0
 26 56  1  0  0  0  0
 27 31  1  0  0  0  0
 28 29  1  0  0  0  0
 28 58  1  0  0  0  0
 28 59  1  0  0  0  0
 29 60  1  0  0  0  0
 29 61  1  0  0  0  0
 30 62  1  0  0  0  0
 30 63  1  0  0  0  0
 30 64  1  0  0  0  0
 31 65  1  0  0  0  0
 32 66  1  0  0  0  0
 32 67  1  0  0  0  0
 32 68  1  0  0  0  0
 33 69  1  0  0  0  0
 33 70  1  0  0  0  0
 33 71  1  0  0  0  0
 34 72  1  0  0  0  0
 34 73  1  0  0  0  0
 34 74  1  0  0  0  0
M  END
> <PUBCHEM_COMPOUND_CID>
2476

> <PUBCHEM_COMPOUND_CANONICALIZED>
1

> <PUBCHEM_CACTVS_COMPLEXITY>
869

> <PUBCHEM_CACTVS_HBOND_ACCEPTOR>
5

> <PUBCHEM_CACTVS_HBOND_DONOR>
2

> <PUBCHEM_CACTVS_ROTATABLE_BOND>
5

> <PUBCHEM_CACTVS_SUBSKEYS>
AAADcfB6OAAAAAAAAAAAAAAAGAAAASAAAAA8YMGDAAAWAEjxAAAAHgAACAAAD3zhmAYyBoMABgCAAiBCAAACCAAgIAAIiAAOiIgNJiKGsRuGeCOlwBGLuAfw8P8PoAABAAAYQADQAAaAADSAAAAAAAAAAA==

> <PUBCHEM_IUPAC_INCHI>
InChI=1S/C29H41NO4/c1-25(2,3)26(4,32)20-15-27-10-11-29(20,33-5)24-28(27)12-13-30(16-17-6-7-17)21(27)14-18-8-9-19(31)23(34-24)22(18)28/h8-9,17,20-21,24,31-32H,6-7,10-16H2,1-5H3

> <PUBCHEM_IUPAC_INCHIKEY>
RMRJXGBAOAMLHD-UHFFFAOYSA-N

> <PUBCHEM_XLOGP3>
5

> <PUBCHEM_EXACT_MASS>
467.303559

> <PUBCHEM_MOLECULAR_FORMULA>
C29H41NO4

> <PUBCHEM_MOLECULAR_WEIGHT>
467.64014

> <PUBCHEM_OPENEYE_CAN_SMILES>
CC(C)(C)C(C)(C1CC23CCC1(C4C25CCN(C3CC6=C5C(=C(C=C6)O)O4)CC7CC7)OC)O

> <PUBCHEM_OPENEYE_ISO_SMILES>
CC(C)(C)C(C)(C1CC23CCC1(C4C25CCN(C3CC6=C5C(=C(C=C6)O)O4)CC7CC7)OC)O

> <PUBCHEM_CACTVS_TPSA>
62.2

> <PUBCHEM_MONOISOTOPIC_WEIGHT>
467.303559

> <PUBCHEM_TOTAL_CHARGE>
0

> <PUBCHEM_HEAVY_ATOM_COUNT>
34

> <PUBCHEM_ATOM_DEF_STEREO_COUNT>
0

> <PUBCHEM_ATOM_UDEF_STEREO_COUNT>
7

> <PUBCHEM_BOND_DEF_STEREO_COUNT>
0

> <PUBCHEM_BOND_UDEF_STEREO_COUNT>
0

> <PUBCHEM_ISOTOPIC_ATOM_COUNT>
0

> <PUBCHEM_COMPONENT_COUNT>
1

> <PUBCHEM_CACTVS_TAUTO_COUNT>
2

> <PUBCHEM_COORDINATE_TYPE>
1
5
255

> <PUBCHEM_BONDANNOTATIONS>
9  1  3
10  11  3
12  17  3
16  20  8
16  21  8
8  2  3
20  26  8
21  27  8
26  31  8
27  31  8
18  3  3
6  13  3
7  15  3

$$$$
