2522
  -OEChem-12171207562D

 70 73  0     1  0  0  0  0  0999 V2000
    9.6565    2.9103    0.0000 O   0  0  0  0  0  0  0  0  0  0  0  0
    5.4641   -4.9636    0.0000 O   0  0  0  0  0  0  0  0  0  0  0  0
    2.0000   -4.9636    0.0000 O   0  0  0  0  0  0  0  0  0  0  0  0
    5.4641    1.0364    0.0000 C   0  0  3  0  0  0  0  0  0  0  0  0
    6.4103    1.3411    0.0000 C   0  0  3  0  0  0  0  0  0  0  0  0
    5.4641    0.0364    0.0000 C   0  0  3  0  0  0  0  0  0  0  0  0
    6.9939    0.5364    0.0000 C   0  0  0  0  0  0  0  0  0  0  0  0
    6.4103   -0.2684    0.0000 C   0  0  0  0  0  0  0  0  0  0  0  0
    4.5981    1.5364    0.0000 C   0  0  0  0  0  0  0  0  0  0  0  0
    6.7210    2.2916    0.0000 C   0  0  3  0  0  0  0  0  0  0  0  0
    4.5981   -0.4636    0.0000 C   0  0  0  0  0  0  0  0  0  0  0  0
    5.4641    2.0364    0.0000 C   0  0  0  0  0  0  0  0  0  0  0  0
    3.7320    1.0364    0.0000 C   0  0  0  0  0  0  0  0  0  0  0  0
    3.7320    0.0364    0.0000 C   0  0  0  0  0  0  0  0  0  0  0  0
    6.0531    3.0359    0.0000 C   0  0  0  0  0  0  0  0  0  0  0  0
    7.6995    2.4978    0.0000 C   0  0  0  0  0  0  0  0  0  0  0  0
    4.5981   -1.4636    0.0000 C   0  0  0  0  0  0  0  0  0  0  0  0
    9.2993    4.6051    0.0000 C   0  0  0  0  0  0  0  0  0  0  0  0
    8.0102    3.4484    0.0000 C   0  0  0  0  0  0  0  0  0  0  0  0
    8.9887    3.6546    0.0000 C   0  0  3  0  0  0  0  0  0  0  0  0
   10.0436    5.2730    0.0000 C   0  0  0  0  0  0  0  0  0  0  0  0
    9.0931    5.5836    0.0000 C   0  0  0  0  0  0  0  0  0  0  0  0
    3.7320   -1.9636    0.0000 C   0  0  0  0  0  0  0  0  0  0  0  0
    3.7320   -2.9636    0.0000 C   0  0  0  0  0  0  0  0  0  0  0  0
    4.5981   -3.4636    0.0000 C   0  0  0  0  0  0  0  0  0  0  0  0
    2.8660   -3.4636    0.0000 C   0  0  0  0  0  0  0  0  0  0  0  0
    4.5981   -4.4636    0.0000 C   0  0  3  0  0  0  0  0  0  0  0  0
    2.8660   -4.4636    0.0000 C   0  0  3  0  0  0  0  0  0  0  0  0
    3.7320   -4.9636    0.0000 C   0  0  0  0  0  0  0  0  0  0  0  0
    2.0000   -2.9636    0.0000 C   0  0  0  0  0  0  0  0  0  0  0  0
    7.2500    1.4730    0.0000 H   0  0  0  0  0  0  0  0  0  0  0  0
    5.5540   -0.8088    0.0000 H   0  0  0  0  0  0  0  0  0  0  0  0
    7.4548    0.1217    0.0000 H   0  0  0  0  0  0  0  0  0  0  0  0
    7.4548    0.9511    0.0000 H   0  0  0  0  0  0  0  0  0  0  0  0
    6.1593   -0.8353    0.0000 H   0  0  0  0  0  0  0  0  0  0  0  0
    6.9477   -0.5776    0.0000 H   0  0  0  0  0  0  0  0  0  0  0  0
    4.9966    2.0113    0.0000 H   0  0  0  0  0  0  0  0  0  0  0  0
    4.1996    2.0113    0.0000 H   0  0  0  0  0  0  0  0  0  0  0  0
    5.8892    2.1164    0.0000 H   0  0  0  0  0  0  0  0  0  0  0  0
    6.0841    2.0364    0.0000 H   0  0  0  0  0  0  0  0  0  0  0  0
    5.4641    2.6564    0.0000 H   0  0  0  0  0  0  0  0  0  0  0  0
    4.8441    2.0364    0.0000 H   0  0  0  0  0  0  0  0  0  0  0  0
    3.5200    1.6190    0.0000 H   0  0  0  0  0  0  0  0  0  0  0  0
    3.1215    0.9287    0.0000 H   0  0  0  0  0  0  0  0  0  0  0  0
    3.1215    0.1440    0.0000 H   0  0  0  0  0  0  0  0  0  0  0  0
    3.5200   -0.5462    0.0000 H   0  0  0  0  0  0  0  0  0  0  0  0
    6.5146    3.4500    0.0000 H   0  0  0  0  0  0  0  0  0  0  0  0
    5.6391    3.4974    0.0000 H   0  0  0  0  0  0  0  0  0  0  0  0
    5.5917    2.6219    0.0000 H   0  0  0  0  0  0  0  0  0  0  0  0
    8.1136    2.0364    0.0000 H   0  0  0  0  0  0  0  0  0  0  0  0
    5.1350   -1.7736    0.0000 H   0  0  0  0  0  0  0  0  0  0  0  0
    8.6802    4.6386    0.0000 H   0  0  0  0  0  0  0  0  0  0  0  0
    7.5961    3.9098    0.0000 H   0  0  0  0  0  0  0  0  0  0  0  0
    8.7246    2.8466    0.0000 H   0  0  0  0  0  0  0  0  0  0  0  0
   10.5315    4.8904    0.0000 H   0  0  0  0  0  0  0  0  0  0  0  0
   10.3356    5.8199    0.0000 H   0  0  0  0  0  0  0  0  0  0  0  0
    9.1804    6.1974    0.0000 H   0  0  0  0  0  0  0  0  0  0  0  0
    8.4734    5.5630    0.0000 H   0  0  0  0  0  0  0  0  0  0  0  0
    3.1951   -1.6536    0.0000 H   0  0  0  0  0  0  0  0  0  0  0  0
   10.2632    3.0382    0.0000 H   0  0  0  0  0  0  0  0  0  0  0  0
    5.2087   -3.5713    0.0000 H   0  0  0  0  0  0  0  0  0  0  0  0
    4.8101   -2.8810    0.0000 H   0  0  0  0  0  0  0  0  0  0  0  0
    4.5981   -5.3136    0.0000 H   0  0  0  0  0  0  0  0  0  0  0  0
    2.8660   -5.3136    0.0000 H   0  0  0  0  0  0  0  0  0  0  0  0
    3.3335   -5.4386    0.0000 H   0  0  0  0  0  0  0  0  0  0  0  0
    4.1306   -5.4386    0.0000 H   0  0  0  0  0  0  0  0  0  0  0  0
    2.0000   -2.3436    0.0000 H   0  0  0  0  0  0  0  0  0  0  0  0
    1.4631   -3.2736    0.0000 H   0  0  0  0  0  0  0  0  0  0  0  0
    5.4641   -5.5836    0.0000 H   0  0  0  0  0  0  0  0  0  0  0  0
    2.0000   -5.5836    0.0000 H   0  0  0  0  0  0  0  0  0  0  0  0
  1 20  1  0  0  0  0
  1 60  1  0  0  0  0
  2 27  1  0  0  0  0
  2 69  1  0  0  0  0
  3 28  1  0  0  0  0
  3 70  1  0  0  0  0
  4  5  1  0  0  0  0
  4  6  1  0  0  0  0
  4  9  1  0  0  0  0
  4 12  1  0  0  0  0
  5  7  1  0  0  0  0
  5 10  1  0  0  0  0
  5 31  1  0  0  0  0
  6  8  1  0  0  0  0
  6 11  1  0  0  0  0
  6 32  1  0  0  0  0
  7  8  1  0  0  0  0
  7 33  1  0  0  0  0
  7 34  1  0  0  0  0
  8 35  1  0  0  0  0
  8 36  1  0  0  0  0
  9 13  1  0  0  0  0
  9 37  1  0  0  0  0
  9 38  1  0  0  0  0
 10 15  1  0  0  0  0
 10 16  1  0  0  0  0
 10 39  1  0  0  0  0
 11 14  1  0  0  0  0
 11 17  2  3  0  0  0
 12 40  1  0  0  0  0
 12 41  1  0  0  0  0
 12 42  1  0  0  0  0
 13 14  1  0  0  0  0
 13 43  1  0  0  0  0
 13 44  1  0  0  0  0
 14 45  1  0  0  0  0
 14 46  1  0  0  0  0
 15 47  1  0  0  0  0
 15 48  1  0  0  0  0
 15 49  1  0  0  0  0
 16 19  2  3  0  0  0
 16 50  1  0  0  0  0
 17 23  1  0  0  0  0
 17 51  1  0  0  0  0
 18 20  1  0  0  0  0
 18 21  1  0  0  0  0
 18 22  1  0  0  0  0
 18 52  1  0  0  0  0
 19 20  1  0  0  0  0
 19 53  1  0  0  0  0
 20 54  1  0  0  0  0
 21 22  1  0  0  0  0
 21 55  1  0  0  0  0
 21 56  1  0  0  0  0
 22 57  1  0  0  0  0
 22 58  1  0  0  0  0
 23 24  2  3  0  0  0
 23 59  1  0  0  0  0
 24 25  1  0  0  0  0
 24 26  1  0  0  0  0
 25 27  1  0  0  0  0
 25 61  1  0  0  0  0
 25 62  1  0  0  0  0
 26 28  1  0  0  0  0
 26 30  2  0  0  0  0
 27 29  1  0  0  0  0
 27 63  1  0  0  0  0
 28 29  1  0  0  0  0
 28 64  1  0  0  0  0
 29 65  1  0  0  0  0
 29 66  1  0  0  0  0
 30 67  1  0  0  0  0
 30 68  1  0  0  0  0
M  END
> <PUBCHEM_COMPOUND_CID>
2522

> <PUBCHEM_COMPOUND_CANONICALIZED>
1

> <PUBCHEM_CACTVS_COMPLEXITY>
743

> <PUBCHEM_CACTVS_HBOND_ACCEPTOR>
3

> <PUBCHEM_CACTVS_HBOND_DONOR>
3

> <PUBCHEM_CACTVS_ROTATABLE_BOND>
5

> <PUBCHEM_CACTVS_SUBSKEYS>
AAADcfB4MAAAAAAAAAAAAAAAGAAAAYAAAAAwYAAAAAAAAGAAAAAAGgAACAAADxSggAICAAAAAgCAAiBCAAAAAAAgAAAICAAAAAgIFAIAAQAAUAAFwAAIkAOA4MQPgAAAAAAAAAAAAAAQACAAAQAACAAAAA==

> <PUBCHEM_IUPAC_OPENEYE_NAME>
5-[2-[1-(4-cyclopropyl-4-hydroxy-1-methyl-but-2-enyl)-7a-methyl-2,3,3a,5,6,7-hexahydro-1H-inden-4-ylidene]ethylidene]-4-methylene-cyclohexane-1,3-diol

> <PUBCHEM_IUPAC_CAS_NAME>
5-[2-[1-(5-cyclopropyl-5-hydroxypent-3-en-2-yl)-7a-methyl-2,3,3a,5,6,7-hexahydro-1H-inden-4-ylidene]ethylidene]-4-methylenecyclohexane-1,3-diol

> <PUBCHEM_IUPAC_NAME>
5-[2-[1-(5-cyclopropyl-5-hydroxypent-3-en-2-yl)-7a-methyl-2,3,3a,5,6,7-hexahydro-1H-inden-4-ylidene]ethylidene]-4-methylidenecyclohexane-1,3-diol

> <PUBCHEM_IUPAC_SYSTEMATIC_NAME>
5-[2-[1-(5-cyclopropyl-5-oxidanyl-pent-3-en-2-yl)-7a-methyl-2,3,3a,5,6,7-hexahydro-1H-inden-4-ylidene]ethylidene]-4-methylidene-cyclohexane-1,3-diol

> <PUBCHEM_IUPAC_TRADITIONAL_NAME>
5-[2-[1-(4-cyclopropyl-4-hydroxy-1-methyl-but-2-enyl)-7a-methyl-2,3,3a,5,6,7-hexahydro-1H-inden-4-ylidene]ethylidene]-4-methylene-cyclohexane-1,3-diol

> <PUBCHEM_IUPAC_INCHI>
InChI=1S/C27H40O3/c1-17(6-13-25(29)20-8-9-20)23-11-12-24-19(5-4-14-27(23,24)3)7-10-21-15-22(28)16-26(30)18(21)2/h6-7,10,13,17,20,22-26,28-30H,2,4-5,8-9,11-12,14-16H2,1,3H3

> <PUBCHEM_IUPAC_INCHIKEY>
LWQQLNNNIPYSNX-UHFFFAOYSA-N

> <PUBCHEM_XLOGP3_AA>
4.3

> <PUBCHEM_EXACT_MASS>
412.297745

> <PUBCHEM_MOLECULAR_FORMULA>
C27H40O3

> <PUBCHEM_MOLECULAR_WEIGHT>
412.6047

> <PUBCHEM_OPENEYE_CAN_SMILES>
CC(C=CC(C1CC1)O)C2CCC3C2(CCCC3=CC=C4CC(CC(C4=C)O)O)C

> <PUBCHEM_OPENEYE_ISO_SMILES>
CC(C=CC(C1CC1)O)C2CCC3C2(CCCC3=CC=C4CC(CC(C4=C)O)O)C

> <PUBCHEM_CACTVS_TPSA>
60.7

> <PUBCHEM_MONOISOTOPIC_WEIGHT>
412.297745

> <PUBCHEM_TOTAL_CHARGE>
0

> <PUBCHEM_HEAVY_ATOM_COUNT>
30

> <PUBCHEM_ATOM_DEF_STEREO_COUNT>
0

> <PUBCHEM_ATOM_UDEF_STEREO_COUNT>
7

> <PUBCHEM_BOND_DEF_STEREO_COUNT>
0

> <PUBCHEM_BOND_UDEF_STEREO_COUNT>
3

> <PUBCHEM_ISOTOPIC_ATOM_COUNT>
0

> <PUBCHEM_COMPONENT_COUNT>
1

> <PUBCHEM_CACTVS_TAUTO_COUNT>
1

> <PUBCHEM_COORDINATE_TYPE>
1
5
255

> <PUBCHEM_BONDANNOTATIONS>
10  39  3
11  17  1
16  19  1
20  54  3
23  24  1
27  63  3
28  64  3
4  12  3
5  31  3
6  32  3

$$$$
