2629
  -OEChem-12171207562D

 70 74  0     1  0  0  0  0  0999 V2000
    7.0468    1.7042    0.0000 S   0  0  0  0  0  0  0  0  0  0  0  0
    4.4487    3.2042    0.0000 S   0  0  0  0  0  0  0  0  0  0  0  0
    9.6267    3.9170    0.0000 O   0  0  0  0  0  0  0  0  0  0  0  0
   10.8540    2.7138    0.0000 O   0  0  0  0  0  0  0  0  0  0  0  0
    6.1808    5.2042    0.0000 O   0  5  0  0  0  0  0  0  0  0  0  0
    7.9128    5.2042    0.0000 O   0  0  0  0  0  0  0  0  0  0  0  0
   12.7101   -0.3773    0.0000 O   0  0  0  0  0  0  0  0  0  0  0  0
    9.8108   -1.1478    0.0000 O   0  0  0  0  0  0  0  0  0  0  0  0
    9.2892   -3.0786    0.0000 O   0  0  0  0  0  0  0  0  0  0  0  0
   15.1647    2.0672    0.0000 O   0  0  0  0  0  0  0  0  0  0  0  0
    7.9128    3.2042    0.0000 N   0  0  0  0  0  0  0  0  0  0  0  0
    9.6267    1.4916    0.0000 N   0  0  0  0  0  0  0  0  0  0  0  0
   11.0380    0.0744    0.0000 N   0  0  0  0  0  0  0  0  0  0  0  0
   11.4829   -1.5995    0.0000 N   0  0  0  0  0  0  0  0  0  0  0  0
   10.9613   -3.5303    0.0000 N   0  0  0  0  0  0  0  0  0  0  0  0
    2.6691    3.2975    0.0000 N   0  0  0  0  0  0  0  0  0  0  0  0
    3.4782    4.6988    0.0000 N   0  0  0  0  0  0  0  0  0  0  0  0
    2.0000    4.0407    0.0000 N   0  0  0  0  0  0  0  0  0  0  0  0
    2.5000    4.9067    0.0000 N   0  0  0  0  0  0  0  0  0  0  0  0
    7.9128    2.2042    0.0000 C   0  0  3  0  0  0  0  0  0  0  0  0
    8.9211    2.2001    0.0000 C   0  0  3  0  0  0  0  0  0  0  0  0
    8.9211    3.2084    0.0000 C   0  0  0  0  0  0  0  0  0  0  0  0
    7.0468    3.7042    0.0000 C   0  0  0  0  0  0  0  0  0  0  0  0
    6.1808    3.2042    0.0000 C   0  0  0  0  0  0  0  0  0  0  0  0
    6.1808    2.2042    0.0000 C   0  0  0  0  0  0  0  0  0  0  0  0
   10.5932    1.7484    0.0000 C   0  0  0  0  0  0  0  0  0  0  0  0
    5.3147    3.7042    0.0000 C   0  0  0  0  0  0  0  0  0  0  0  0
   11.2988    1.0398    0.0000 C   0  0  3  0  0  0  0  0  0  0  0  0
    7.0468    4.7042    0.0000 C   0  0  0  0  0  0  0  0  0  0  0  0
   12.2653    1.2967    0.0000 C   0  0  0  0  0  0  0  0  0  0  0  0
   12.1885   -2.3081    0.0000 C   0  0  0  0  0  0  0  0  0  0  0  0
   11.7437   -0.6341    0.0000 C   0  0  0  0  0  0  0  0  0  0  0  0
   11.9277   -3.2735    0.0000 C   0  0  0  0  0  0  0  0  0  0  0  0
   12.9710    0.5881    0.0000 C   0  0  0  0  0  0  0  0  0  0  0  0
   12.5261    2.2620    0.0000 C   0  0  0  0  0  0  0  0  0  0  0  0
   10.5164   -1.8564    0.0000 C   0  0  0  0  0  0  0  0  0  0  0  0
   10.2556   -2.8217    0.0000 C   0  0  0  0  0  0  0  0  0  0  0  0
   10.7005   -4.4957    0.0000 C   0  0  0  0  0  0  0  0  0  0  0  0
    3.5827    3.7042    0.0000 C   0  0  0  0  0  0  0  0  0  0  0  0
   13.9374    0.8449    0.0000 C   0  0  0  0  0  0  0  0  0  0  0  0
   13.4926    2.5189    0.0000 C   0  0  0  0  0  0  0  0  0  0  0  0
   14.1982    1.8103    0.0000 C   0  0  0  0  0  0  0  0  0  0  0  0
   11.4061   -5.2042    0.0000 C   0  0  0  0  0  0  0  0  0  0  0  0
    2.4612    2.3194    0.0000 C   0  0  0  0  0  0  0  0  0  0  0  0
    8.0720    1.6050    0.0000 H   0  0  0  0  0  0  0  0  0  0  0  0
    8.6821    1.6280    0.0000 H   0  0  0  0  0  0  0  0  0  0  0  0
    9.4650    0.8930    0.0000 H   0  0  0  0  0  0  0  0  0  0  0  0
    5.5702    2.3119    0.0000 H   0  0  0  0  0  0  0  0  0  0  0  0
    5.9687    1.6216    0.0000 H   0  0  0  0  0  0  0  0  0  0  0  0
    5.7133    4.1792    0.0000 H   0  0  0  0  0  0  0  0  0  0  0  0
    4.9162    4.1792    0.0000 H   0  0  0  0  0  0  0  0  0  0  0  0
   11.7363    0.6005    0.0000 H   0  0  0  0  0  0  0  0  0  0  0  0
   10.4388   -0.0848    0.0000 H   0  0  0  0  0  0  0  0  0  0  0  0
   12.7499   -2.5712    0.0000 H   0  0  0  0  0  0  0  0  0  0  0  0
   12.5452   -1.8009    0.0000 H   0  0  0  0  0  0  0  0  0  0  0  0
   11.9805   -3.8912    0.0000 H   0  0  0  0  0  0  0  0  0  0  0  0
   12.5453   -3.3288    0.0000 H   0  0  0  0  0  0  0  0  0  0  0  0
   12.8093   -0.0104    0.0000 H   0  0  0  0  0  0  0  0  0  0  0  0
   12.0886    2.7014    0.0000 H   0  0  0  0  0  0  0  0  0  0  0  0
   10.1391   -4.2325    0.0000 H   0  0  0  0  0  0  0  0  0  0  0  0
   10.3438   -5.0028    0.0000 H   0  0  0  0  0  0  0  0  0  0  0  0
   14.3749    0.4056    0.0000 H   0  0  0  0  0  0  0  0  0  0  0  0
   13.6543    3.1174    0.0000 H   0  0  0  0  0  0  0  0  0  0  0  0
   10.9668   -5.6418    0.0000 H   0  0  0  0  0  0  0  0  0  0  0  0
   11.8436   -5.6436    0.0000 H   0  0  0  0  0  0  0  0  0  0  0  0
   11.8454   -4.7668    0.0000 H   0  0  0  0  0  0  0  0  0  0  0  0
    1.8548    2.4483    0.0000 H   0  0  0  0  0  0  0  0  0  0  0  0
    2.3323    1.7129    0.0000 H   0  0  0  0  0  0  0  0  0  0  0  0
    3.0677    2.1905    0.0000 H   0  0  0  0  0  0  0  0  0  0  0  0
   15.3264    2.6657    0.0000 H   0  0  0  0  0  0  0  0  0  0  0  0
  1 20  1  0  0  0  0
  1 25  1  0  0  0  0
  2 27  1  0  0  0  0
  2 39  1  0  0  0  0
  3 22  2  0  0  0  0
  4 26  2  0  0  0  0
  5 29  1  0  0  0  0
  6 29  2  0  0  0  0
  7 32  2  0  0  0  0
  8 36  2  0  0  0  0
  9 37  2  0  0  0  0
 10 42  1  0  0  0  0
 10 70  1  0  0  0  0
 11 20  1  0  0  0  0
 11 22  1  0  0  0  0
 11 23  1  0  0  0  0
 12 21  1  0  0  0  0
 12 26  1  0  0  0  0
 12 47  1  0  0  0  0
 13 28  1  0  0  0  0
 13 32  1  0  0  0  0
 13 53  1  0  0  0  0
 14 31  1  0  0  0  0
 14 32  1  0  0  0  0
 14 36  1  0  0  0  0
 15 33  1  0  0  0  0
 15 37  1  0  0  0  0
 15 38  1  0  0  0  0
 16 18  1  0  0  0  0
 16 39  1  0  0  0  0
 16 44  1  0  0  0  0
 17 19  1  0  0  0  0
 17 39  2  0  0  0  0
 18 19  2  0  0  0  0
 20 21  1  0  0  0  0
 20 45  1  0  0  0  0
 21 22  1  0  0  0  0
 21 46  1  0  0  0  0
 23 24  2  0  0  0  0
 23 29  1  0  0  0  0
 24 25  1  0  0  0  0
 24 27  1  0  0  0  0
 25 48  1  0  0  0  0
 25 49  1  0  0  0  0
 26 28  1  0  0  0  0
 27 50  1  0  0  0  0
 27 51  1  0  0  0  0
 28 30  1  0  0  0  0
 28 52  1  0  0  0  0
 30 34  2  0  0  0  0
 30 35  1  0  0  0  0
 31 33  1  0  0  0  0
 31 54  1  0  0  0  0
 31 55  1  0  0  0  0
 33 56  1  0  0  0  0
 33 57  1  0  0  0  0
 34 40  1  0  0  0  0
 34 58  1  0  0  0  0
 35 41  2  0  0  0  0
 35 59  1  0  0  0  0
 36 37  1  0  0  0  0
 38 43  1  0  0  0  0
 38 60  1  0  0  0  0
 38 61  1  0  0  0  0
 40 42  2  0  0  0  0
 40 62  1  0  0  0  0
 41 42  1  0  0  0  0
 41 63  1  0  0  0  0
 43 64  1  0  0  0  0
 43 65  1  0  0  0  0
 43 66  1  0  0  0  0
 44 67  1  0  0  0  0
 44 68  1  0  0  0  0
 44 69  1  0  0  0  0
M  CHG  1   5  -1
M  END
> <PUBCHEM_COMPOUND_CID>
2629

> <PUBCHEM_COMPOUND_CANONICALIZED>
1

> <PUBCHEM_CACTVS_COMPLEXITY>
1240

> <PUBCHEM_CACTVS_HBOND_ACCEPTOR>
13

> <PUBCHEM_CACTVS_HBOND_DONOR>
3

> <PUBCHEM_CACTVS_ROTATABLE_BOND>
8

> <PUBCHEM_CACTVS_SUBSKEYS>
AAADceB7/ABgAAAAAAAAAAAAAABYAWAAAAA8QIAAAAAQAAABwAAAHgQYCAAADCzF2ASzHofIAgiqAiXSfACCEANgoJANyIGODMiKZjqilTOUcAhs1zO4mQeY2IOOIAAAAAAAAABAAAAAAAAAAAAAAAAAAA==

> <PUBCHEM_IUPAC_OPENEYE_NAME>
7-[[2-[(4-ethyl-2,3-dioxo-piperazine-1-carbonyl)amino]-2-(4-hydroxyphenyl)acetyl]amino]-3-[(1-methyltetrazol-5-yl)sulfanylmethyl]-8-oxo-5-thia-1-azabicyclo[4.2.0]oct-2-ene-2-carboxylate

> <PUBCHEM_IUPAC_CAS_NAME>
7-[[2-[[(4-ethyl-2,3-dioxo-1-piperazinyl)-oxomethyl]amino]-2-(4-hydroxyphenyl)-1-oxoethyl]amino]-3-[[(1-methyl-5-tetrazolyl)thio]methyl]-8-oxo-5-thia-1-azabicyclo[4.2.0]oct-2-ene-2-carboxylate

> <PUBCHEM_IUPAC_NAME>
7-[[2-[(4-ethyl-2,3-dioxopiperazine-1-carbonyl)amino]-2-(4-hydroxyphenyl)acetyl]amino]-3-[(1-methyltetrazol-5-yl)sulfanylmethyl]-8-oxo-5-thia-1-azabicyclo[4.2.0]oct-2-ene-2-carboxylate

> <PUBCHEM_IUPAC_SYSTEMATIC_NAME>
7-[[2-[[4-ethyl-2,3-bis(oxidanylidene)piperazin-1-yl]carbonylamino]-2-(4-hydroxyphenyl)ethanoyl]amino]-3-[(1-methyl-1,2,3,4-tetrazol-5-yl)sulfanylmethyl]-8-oxidanylidene-5-thia-1-azabicyclo[4.2.0]oct-2-ene-2-carboxylate

> <PUBCHEM_IUPAC_TRADITIONAL_NAME>
7-[[2-[(4-ethyl-2,3-diketo-piperazine-1-carbonyl)amino]-2-(4-hydroxyphenyl)acetyl]amino]-8-keto-3-[[(1-methyltetrazol-5-yl)thio]methyl]-5-thia-1-azabicyclo[4.2.0]oct-2-ene-2-carboxylate

> <PUBCHEM_IUPAC_INCHI>
InChI=1S/C25H27N9O8S2/c1-3-32-8-9-33(21(39)20(32)38)24(42)27-15(12-4-6-14(35)7-5-12)18(36)26-16-19(37)34-17(23(40)41)13(10-43-22(16)34)11-44-25-28-29-30-31(25)2/h4-7,15-16,22,35H,3,8-11H2,1-2H3,(H,26,36)(H,27,42)(H,40,41)/p-1

> <PUBCHEM_IUPAC_INCHIKEY>
GCFBRXLSHGKWDP-UHFFFAOYSA-M

> <PUBCHEM_XLOGP3>
-0.1

> <PUBCHEM_EXACT_MASS>
644.134576

> <PUBCHEM_MOLECULAR_FORMULA>
C25H26N9O8S2-

> <PUBCHEM_MOLECULAR_WEIGHT>
644.65944

> <PUBCHEM_OPENEYE_CAN_SMILES>
CCN1CCN(C(=O)C1=O)C(=O)NC(C2=CC=C(C=C2)O)C(=O)NC3C4N(C3=O)C(=C(CS4)CSC5=NN=NN5C)C(=O)[O-]

> <PUBCHEM_OPENEYE_ISO_SMILES>
CCN1CCN(C(=O)C1=O)C(=O)NC(C2=CC=C(C=C2)O)C(=O)NC3C4N(C3=O)C(=C(CS4)CSC5=NN=NN5C)C(=O)[O-]

> <PUBCHEM_CACTVS_TPSA>
274

> <PUBCHEM_MONOISOTOPIC_WEIGHT>
644.134576

> <PUBCHEM_TOTAL_CHARGE>
-1

> <PUBCHEM_HEAVY_ATOM_COUNT>
44

> <PUBCHEM_ATOM_DEF_STEREO_COUNT>
0

> <PUBCHEM_ATOM_UDEF_STEREO_COUNT>
3

> <PUBCHEM_BOND_DEF_STEREO_COUNT>
0

> <PUBCHEM_BOND_UDEF_STEREO_COUNT>
0

> <PUBCHEM_ISOTOPIC_ATOM_COUNT>
0

> <PUBCHEM_COMPONENT_COUNT>
1

> <PUBCHEM_CACTVS_TAUTO_COUNT>
16

> <PUBCHEM_COORDINATE_TYPE>
1
5
255

> <PUBCHEM_BONDANNOTATIONS>
20  1  3
21  12  3
16  18  8
16  39  8
17  19  8
17  39  8
18  19  8
28  26  3
30  34  8
30  35  8
34  40  8
35  41  8
40  42  8
41  42  8

$$$$
