2631
  -OEChem-12171207562D

 46 48  0     1  0  0  0  0  0999 V2000
    6.3301   -0.0981    0.0000 S   0  0  0  0  0  0  0  0  0  0  0  0
   13.1643   -0.5937    0.0000 S   0  0  0  0  0  0  0  0  0  0  0  0
    8.9101    2.1146    0.0000 O   0  0  0  0  0  0  0  0  0  0  0  0
    3.7320    1.4019    0.0000 O   0  0  0  0  0  0  0  0  0  0  0  0
    5.4641    3.4019    0.0000 O   0  5  0  0  0  0  0  0  0  0  0  0
    7.1962    3.4019    0.0000 O   0  0  0  0  0  0  0  0  0  0  0  0
   10.1373    0.9114    0.0000 O   0  0  0  0  0  0  0  0  0  0  0  0
   11.0270   -2.4365    0.0000 O   0  0  0  0  0  0  0  0  0  0  0  0
    2.8660    2.9019    0.0000 O   0  0  0  0  0  0  0  0  0  0  0  0
    7.1962    1.4019    0.0000 N   0  0  0  0  0  0  0  0  0  0  0  0
    8.9101   -0.3108    0.0000 N   0  0  0  0  0  0  0  0  0  0  0  0
   10.3214   -1.7279    0.0000 N   0  0  0  0  0  0  0  0  0  0  0  0
   11.9089    0.4271    0.0000 N   0  0  0  0  0  0  0  0  0  0  0  0
   13.5384    1.1486    0.0000 N   0  0  0  0  0  0  0  0  0  0  0  0
    7.1962    0.4019    0.0000 C   0  0  3  0  0  0  0  0  0  0  0  0
    8.2044    0.3977    0.0000 C   0  0  3  0  0  0  0  0  0  0  0  0
    8.2044    1.4060    0.0000 C   0  0  0  0  0  0  0  0  0  0  0  0
    6.3301    1.9019    0.0000 C   0  0  0  0  0  0  0  0  0  0  0  0
    5.4641    1.4019    0.0000 C   0  0  0  0  0  0  0  0  0  0  0  0
    5.4641    0.4019    0.0000 C   0  0  0  0  0  0  0  0  0  0  0  0
    4.5981    1.9019    0.0000 C   0  0  0  0  0  0  0  0  0  0  0  0
    6.3301    2.9019    0.0000 C   0  0  0  0  0  0  0  0  0  0  0  0
    9.8765   -0.0540    0.0000 C   0  0  0  0  0  0  0  0  0  0  0  0
   10.5822   -0.7625    0.0000 C   0  0  0  0  0  0  0  0  0  0  0  0
   11.5486   -0.5057    0.0000 C   0  0  0  0  0  0  0  0  0  0  0  0
    2.8660    1.9019    0.0000 C   0  0  0  0  0  0  0  0  0  0  0  0
   12.3245   -1.1366    0.0000 C   0  0  0  0  0  0  0  0  0  0  0  0
    2.0000    1.4019    0.0000 C   0  0  0  0  0  0  0  0  0  0  0  0
   12.9075    0.3727    0.0000 C   0  0  0  0  0  0  0  0  0  0  0  0
   10.7662   -3.4019    0.0000 C   0  0  0  0  0  0  0  0  0  0  0  0
    7.4145   -0.4196    0.0000 H   0  0  0  0  0  0  0  0  0  0  0  0
    7.8767   -0.3866    0.0000 H   0  0  0  0  0  0  0  0  0  0  0  0
    4.8535    0.5095    0.0000 H   0  0  0  0  0  0  0  0  0  0  0  0
    5.2520   -0.1807    0.0000 H   0  0  0  0  0  0  0  0  0  0  0  0
    8.7484   -0.9094    0.0000 H   0  0  0  0  0  0  0  0  0  0  0  0
    4.9966    2.3768    0.0000 H   0  0  0  0  0  0  0  0  0  0  0  0
    4.1996    2.3768    0.0000 H   0  0  0  0  0  0  0  0  0  0  0  0
   12.2908   -1.7557    0.0000 H   0  0  0  0  0  0  0  0  0  0  0  0
    1.6900    1.9388    0.0000 H   0  0  0  0  0  0  0  0  0  0  0  0
    1.4631    1.0919    0.0000 H   0  0  0  0  0  0  0  0  0  0  0  0
    2.3100    0.8649    0.0000 H   0  0  0  0  0  0  0  0  0  0  0  0
   14.1505    1.0503    0.0000 H   0  0  0  0  0  0  0  0  0  0  0  0
   13.3174    1.7279    0.0000 H   0  0  0  0  0  0  0  0  0  0  0  0
   10.1677   -3.2402    0.0000 H   0  0  0  0  0  0  0  0  0  0  0  0
   10.6045   -4.0004    0.0000 H   0  0  0  0  0  0  0  0  0  0  0  0
   11.3648   -3.5636    0.0000 H   0  0  0  0  0  0  0  0  0  0  0  0
  1 15  1  0  0  0  0
  1 20  1  0  0  0  0
  2 27  1  0  0  0  0
  2 29  1  0  0  0  0
  3 17  2  0  0  0  0
  4 21  1  0  0  0  0
  4 26  1  0  0  0  0
  5 22  1  0  0  0  0
  6 22  2  0  0  0  0
  7 23  2  0  0  0  0
  8 12  1  0  0  0  0
  8 30  1  0  0  0  0
  9 26  2  0  0  0  0
 10 15  1  0  0  0  0
 10 17  1  0  0  0  0
 10 18  1  0  0  0  0
 11 16  1  0  0  0  0
 11 23  1  0  0  0  0
 11 35  1  0  0  0  0
 12 24  2  3  0  0  0
 13 25  1  0  0  0  0
 13 29  2  0  0  0  0
 14 29  1  0  0  0  0
 14 42  1  0  0  0  0
 14 43  1  0  0  0  0
 15 16  1  0  0  0  0
 15 31  1  0  0  0  0
 16 17  1  0  0  0  0
 16 32  1  0  0  0  0
 18 19  2  0  0  0  0
 18 22  1  0  0  0  0
 19 20  1  0  0  0  0
 19 21  1  0  0  0  0
 20 33  1  0  0  0  0
 20 34  1  0  0  0  0
 21 36  1  0  0  0  0
 21 37  1  0  0  0  0
 23 24  1  0  0  0  0
 24 25  1  0  0  0  0
 25 27  2  0  0  0  0
 26 28  1  0  0  0  0
 27 38  1  0  0  0  0
 28 39  1  0  0  0  0
 28 40  1  0  0  0  0
 28 41  1  0  0  0  0
 30 44  1  0  0  0  0
 30 45  1  0  0  0  0
 30 46  1  0  0  0  0
M  CHG  1   5  -1
M  END
> <PUBCHEM_COMPOUND_CID>
2631

> <PUBCHEM_COMPOUND_CANONICALIZED>
1

> <PUBCHEM_CACTVS_COMPLEXITY>
827

> <PUBCHEM_CACTVS_HBOND_ACCEPTOR>
12

> <PUBCHEM_CACTVS_HBOND_DONOR>
2

> <PUBCHEM_CACTVS_ROTATABLE_BOND>
7

> <PUBCHEM_CACTVS_SUBSKEYS>
AAADceB7uABgAAAAAAAAAAAAAABYAWAAAAAgAAAAAAAQAAABgAAAHgQUAAAADCjl1gajmRPYFAisAwXyfAAA8KlhCjkACJW4IFiCZJgg5CEWEAAAFgKwISAAAAAAAAAAAAAAAAAAAAAAAAAAAAAAAAAAAA==

> <PUBCHEM_IUPAC_OPENEYE_NAME>
3-(acetoxymethyl)-7-[[2-(2-aminothiazol-4-yl)-2-methoxyimino-acetyl]amino]-8-oxo-5-thia-1-azabicyclo[4.2.0]oct-2-ene-2-carboxylate

> <PUBCHEM_IUPAC_CAS_NAME>
3-(acetyloxymethyl)-7-[[2-(2-amino-4-thiazolyl)-2-methoxyimino-1-oxoethyl]amino]-8-oxo-5-thia-1-azabicyclo[4.2.0]oct-2-ene-2-carboxylate

> <PUBCHEM_IUPAC_NAME>
3-(acetyloxymethyl)-7-[[2-(2-amino-1,3-thiazol-4-yl)-2-methoxyiminoacetyl]amino]-8-oxo-5-thia-1-azabicyclo[4.2.0]oct-2-ene-2-carboxylate

> <PUBCHEM_IUPAC_SYSTEMATIC_NAME>
3-(acetyloxymethyl)-7-[[2-(2-azanyl-1,3-thiazol-4-yl)-2-methoxyimino-ethanoyl]amino]-8-oxidanylidene-5-thia-1-azabicyclo[4.2.0]oct-2-ene-2-carboxylate

> <PUBCHEM_IUPAC_TRADITIONAL_NAME>
3-(acetoxymethyl)-7-[[2-(2-aminothiazol-4-yl)-2-methyloximino-acetyl]amino]-8-keto-5-thia-1-azabicyclo[4.2.0]oct-2-ene-2-carboxylate

> <PUBCHEM_IUPAC_INCHI>
InChI=1S/C16H17N5O7S2/c1-6(22)28-3-7-4-29-14-10(13(24)21(14)11(7)15(25)26)19-12(23)9(20-27-2)8-5-30-16(17)18-8/h5,10,14H,3-4H2,1-2H3,(H2,17,18)(H,19,23)(H,25,26)/p-1

> <PUBCHEM_IUPAC_INCHIKEY>
GPRBEKHLDVQUJE-UHFFFAOYSA-M

> <PUBCHEM_XLOGP3>
-0.7

> <PUBCHEM_EXACT_MASS>
454.049115

> <PUBCHEM_MOLECULAR_FORMULA>
C16H16N5O7S2-

> <PUBCHEM_MOLECULAR_WEIGHT>
454.45754

> <PUBCHEM_OPENEYE_CAN_SMILES>
CC(=O)OCC1=C(N2C(C(C2=O)NC(=O)C(=NOC)C3=CSC(=N3)N)SC1)C(=O)[O-]

> <PUBCHEM_OPENEYE_ISO_SMILES>
CC(=O)OCC1=C(N2C(C(C2=O)NC(=O)C(=NOC)C3=CSC(=N3)N)SC1)C(=O)[O-]

> <PUBCHEM_CACTVS_TPSA>
230

> <PUBCHEM_MONOISOTOPIC_WEIGHT>
454.049115

> <PUBCHEM_TOTAL_CHARGE>
-1

> <PUBCHEM_HEAVY_ATOM_COUNT>
30

> <PUBCHEM_ATOM_DEF_STEREO_COUNT>
0

> <PUBCHEM_ATOM_UDEF_STEREO_COUNT>
2

> <PUBCHEM_BOND_DEF_STEREO_COUNT>
0

> <PUBCHEM_BOND_UDEF_STEREO_COUNT>
1

> <PUBCHEM_ISOTOPIC_ATOM_COUNT>
0

> <PUBCHEM_COMPONENT_COUNT>
1

> <PUBCHEM_CACTVS_TAUTO_COUNT>
14

> <PUBCHEM_COORDINATE_TYPE>
1
5
255

> <PUBCHEM_BONDANNOTATIONS>
12  24  1
13  25  8
13  29  8
15  31  3
16  32  3
2  27  8
2  29  8
25  27  8

$$$$
