2751
  -OEChem-12171207572D

 61 63  0     1  0  0  0  0  0999 V2000
    8.0344    1.6446    0.0000 O   0  0  0  0  0  0  0  0  0  0  0  0
   10.3363    2.0907    0.0000 O   0  0  0  0  0  0  0  0  0  0  0  0
    8.6044    2.0707    0.0000 O   0  0  0  0  0  0  0  0  0  0  0  0
    3.6123    1.7127    0.0000 O   0  0  0  0  0  0  0  0  0  0  0  0
    4.9665    2.7926    0.0000 O   0  0  0  0  0  0  0  0  0  0  0  0
    8.5937   -0.9538    0.0000 N   0  0  3  0  0  0  0  0  0  0  0  0
    8.5937    0.0462    0.0000 N   0  0  0  0  0  0  0  0  0  0  0  0
    6.2135    1.2290    0.0000 N   0  0  0  0  0  0  0  0  0  0  0  0
    9.4877    0.5808    0.0000 C   0  0  3  0  0  0  0  0  0  0  0  0
    6.8370    0.4471    0.0000 C   0  0  3  0  0  0  0  0  0  0  0  0
    9.4877   -1.4885    0.0000 C   0  0  0  0  0  0  0  0  0  0  0  0
    7.8119   -1.5773    0.0000 C   0  0  0  0  0  0  0  0  0  0  0  0
   10.3937    0.0670    0.0000 C   0  0  0  0  0  0  0  0  0  0  0  0
    6.4031   -0.4538    0.0000 C   0  0  0  0  0  0  0  0  0  0  0  0
   10.3937   -0.9747    0.0000 C   0  0  0  0  0  0  0  0  0  0  0  0
    6.8370   -1.3548    0.0000 C   0  0  0  0  0  0  0  0  0  0  0  0
    7.8119    0.6696    0.0000 C   0  0  0  0  0  0  0  0  0  0  0  0
    5.2246    1.0799    0.0000 C   0  0  3  0  0  0  0  0  0  0  0  0
    9.4761    1.5808    0.0000 C   0  0  0  0  0  0  0  0  0  0  0  0
    4.8593    0.1490    0.0000 C   0  0  0  0  0  0  0  0  0  0  0  0
    3.8705    0.0000    0.0000 C   0  0  0  0  0  0  0  0  0  0  0  0
    4.6011    1.8618    0.0000 C   0  0  0  0  0  0  0  0  0  0  0  0
    3.5051   -0.9309    0.0000 C   0  0  0  0  0  0  0  0  0  0  0  0
    2.5163   -1.0799    0.0000 C   0  0  0  0  0  0  0  0  0  0  0  0
    4.1286   -1.7127    0.0000 C   0  0  0  0  0  0  0  0  0  0  0  0
    2.9888    2.4945    0.0000 C   0  0  0  0  0  0  0  0  0  0  0  0
    2.1510   -2.0108    0.0000 C   0  0  0  0  0  0  0  0  0  0  0  0
    3.7633   -2.6436    0.0000 C   0  0  0  0  0  0  0  0  0  0  0  0
    2.0000    2.3455    0.0000 C   0  0  0  0  0  0  0  0  0  0  0  0
    2.7744   -2.7926    0.0000 C   0  0  0  0  0  0  0  0  0  0  0  0
    8.9466    0.8835    0.0000 H   0  0  0  0  0  0  0  0  0  0  0  0
    7.0417    1.0323    0.0000 H   0  0  0  0  0  0  0  0  0  0  0  0
    9.0831   -1.9583    0.0000 H   0  0  0  0  0  0  0  0  0  0  0  0
    9.8813   -1.9675    0.0000 H   0  0  0  0  0  0  0  0  0  0  0  0
    7.5429   -2.1359    0.0000 H   0  0  0  0  0  0  0  0  0  0  0  0
    8.2966   -1.9639    0.0000 H   0  0  0  0  0  0  0  0  0  0  0  0
   11.0046   -0.0391    0.0000 H   0  0  0  0  0  0  0  0  0  0  0  0
   10.6028    0.6507    0.0000 H   0  0  0  0  0  0  0  0  0  0  0  0
    5.9183   -0.0673    0.0000 H   0  0  0  0  0  0  0  0  0  0  0  0
    5.9183   -0.8404    0.0000 H   0  0  0  0  0  0  0  0  0  0  0  0
   10.6028   -1.5583    0.0000 H   0  0  0  0  0  0  0  0  0  0  0  0
   11.0046   -0.8686    0.0000 H   0  0  0  0  0  0  0  0  0  0  0  0
    6.2325   -1.4928    0.0000 H   0  0  0  0  0  0  0  0  0  0  0  0
    6.8370   -1.9748    0.0000 H   0  0  0  0  0  0  0  0  0  0  0  0
    6.4400    1.8061    0.0000 H   0  0  0  0  0  0  0  0  0  0  0  0
    5.6112    0.5952    0.0000 H   0  0  0  0  0  0  0  0  0  0  0  0
    4.8438   -0.4708    0.0000 H   0  0  0  0  0  0  0  0  0  0  0  0
    5.4670    0.0262    0.0000 H   0  0  0  0  0  0  0  0  0  0  0  0
    3.8859    0.6198    0.0000 H   0  0  0  0  0  0  0  0  0  0  0  0
    3.2628    0.1229    0.0000 H   0  0  0  0  0  0  0  0  0  0  0  0
   10.3291    2.7107    0.0000 H   0  0  0  0  0  0  0  0  0  0  0  0
    2.1297   -0.5952    0.0000 H   0  0  0  0  0  0  0  0  0  0  0  0
    4.7417   -1.6203    0.0000 H   0  0  0  0  0  0  0  0  0  0  0  0
    3.5333    2.7910    0.0000 H   0  0  0  0  0  0  0  0  0  0  0  0
    2.7914    3.0822    0.0000 H   0  0  0  0  0  0  0  0  0  0  0  0
    1.5379   -2.1032    0.0000 H   0  0  0  0  0  0  0  0  0  0  0  0
    4.1498   -3.1283    0.0000 H   0  0  0  0  0  0  0  0  0  0  0  0
    2.5479   -3.3698    0.0000 H   0  0  0  0  0  0  0  0  0  0  0  0
    1.9076    2.9586    0.0000 H   0  0  0  0  0  0  0  0  0  0  0  0
    1.3869    2.2531    0.0000 H   0  0  0  0  0  0  0  0  0  0  0  0
    2.0924    1.7324    0.0000 H   0  0  0  0  0  0  0  0  0  0  0  0
  1 17  2  0  0  0  0
  2 19  1  0  0  0  0
  2 51  1  0  0  0  0
  3 19  2  0  0  0  0
  4 22  1  0  0  0  0
  4 26  1  0  0  0  0
  5 22  2  0  0  0  0
  6  7  1  0  0  0  0
  6 11  1  0  0  0  0
  6 12  1  0  0  0  0
  7  9  1  0  0  0  0
  7 17  1  0  0  0  0
  8 10  1  0  0  0  0
  8 18  1  0  0  0  0
  8 45  1  0  0  0  0
  9 13  1  0  0  0  0
  9 19  1  0  0  0  0
  9 31  1  0  0  0  0
 10 14  1  0  0  0  0
 10 17  1  0  0  0  0
 10 32  1  0  0  0  0
 11 15  1  0  0  0  0
 11 33  1  0  0  0  0
 11 34  1  0  0  0  0
 12 16  1  0  0  0  0
 12 35  1  0  0  0  0
 12 36  1  0  0  0  0
 13 15  1  0  0  0  0
 13 37  1  0  0  0  0
 13 38  1  0  0  0  0
 14 16  1  0  0  0  0
 14 39  1  0  0  0  0
 14 40  1  0  0  0  0
 15 41  1  0  0  0  0
 15 42  1  0  0  0  0
 16 43  1  0  0  0  0
 16 44  1  0  0  0  0
 18 20  1  0  0  0  0
 18 22  1  0  0  0  0
 18 46  1  0  0  0  0
 20 21  1  0  0  0  0
 20 47  1  0  0  0  0
 20 48  1  0  0  0  0
 21 23  1  0  0  0  0
 21 49  1  0  0  0  0
 21 50  1  0  0  0  0
 23 24  2  0  0  0  0
 23 25  1  0  0  0  0
 24 27  1  0  0  0  0
 24 52  1  0  0  0  0
 25 28  2  0  0  0  0
 25 53  1  0  0  0  0
 26 29  1  0  0  0  0
 26 54  1  0  0  0  0
 26 55  1  0  0  0  0
 27 30  2  0  0  0  0
 27 56  1  0  0  0  0
 28 30  1  0  0  0  0
 28 57  1  0  0  0  0
 29 59  1  0  0  0  0
 29 60  1  0  0  0  0
 29 61  1  0  0  0  0
 30 58  1  0  0  0  0
M  END
> <PUBCHEM_COMPOUND_CID>
2751

> <PUBCHEM_COMPOUND_CANONICALIZED>
1

> <PUBCHEM_CACTVS_COMPLEXITY>
608

> <PUBCHEM_CACTVS_HBOND_ACCEPTOR>
7

> <PUBCHEM_CACTVS_HBOND_DONOR>
2

> <PUBCHEM_CACTVS_ROTATABLE_BOND>
9

> <PUBCHEM_CACTVS_SUBSKEYS>
AAADceB7OAAAAAAAAAAAAAAAAAAAAAAAAAA8QAAABYAAAAABAAAAHgAYCAAADCjhmAYyCILABgCIAiHSGAACAAAgAAAaiIGIAIgKYDKAkTCXYAAklgCYiAeY2bKOAAAAAAAAAAAAAAAAAAAAAAAAAAAAAA==

> <PUBCHEM_IUPAC_OPENEYE_NAME>
7-[(1-ethoxycarbonyl-3-phenyl-propyl)amino]-6-oxo-1,2,3,4,7,8,9,10-octahydropyridazino[1,2-a]diazepine-4-carboxylic acid

> <PUBCHEM_IUPAC_CAS_NAME>
7-[(1-ethoxy-1-oxo-4-phenylbutan-2-yl)amino]-6-oxo-1,2,3,4,7,8,9,10-octahydropyridazino[1,2-a]diazepine-4-carboxylic acid

> <PUBCHEM_IUPAC_NAME>
7-[(1-ethoxy-1-oxo-4-phenylbutan-2-yl)amino]-6-oxo-1,2,3,4,7,8,9,10-octahydropyridazino[1,2-a]diazepine-4-carboxylic acid

> <PUBCHEM_IUPAC_SYSTEMATIC_NAME>
7-[(1-ethoxy-1-oxidanylidene-4-phenyl-butan-2-yl)amino]-6-oxidanylidene-1,2,3,4,7,8,9,10-octahydropyridazino[1,2-a][1,2]diazepine-4-carboxylic acid

> <PUBCHEM_IUPAC_TRADITIONAL_NAME>
7-[(1-carbethoxy-3-phenyl-propyl)amino]-6-keto-1,2,3,4,7,8,9,10-octahydropyridazino[1,2-a]diazepine-4-carboxylic acid

> <PUBCHEM_IUPAC_INCHI>
InChI=1S/C22H31N3O5/c1-2-30-22(29)18(13-12-16-8-4-3-5-9-16)23-17-10-6-14-24-15-7-11-19(21(27)28)25(24)20(17)26/h3-5,8-9,17-19,23H,2,6-7,10-15H2,1H3,(H,27,28)

> <PUBCHEM_IUPAC_INCHIKEY>
HHHKFGXWKKUNCY-UHFFFAOYSA-N

> <PUBCHEM_XLOGP3>
0.6

> <PUBCHEM_EXACT_MASS>
417.226371

> <PUBCHEM_MOLECULAR_FORMULA>
C22H31N3O5

> <PUBCHEM_MOLECULAR_WEIGHT>
417.49864

> <PUBCHEM_OPENEYE_CAN_SMILES>
CCOC(=O)C(CCC1=CC=CC=C1)NC2CCCN3CCCC(N3C2=O)C(=O)O

> <PUBCHEM_OPENEYE_ISO_SMILES>
CCOC(=O)C(CCC1=CC=CC=C1)NC2CCCN3CCCC(N3C2=O)C(=O)O

> <PUBCHEM_CACTVS_TPSA>
99.2

> <PUBCHEM_MONOISOTOPIC_WEIGHT>
417.226371

> <PUBCHEM_TOTAL_CHARGE>
0

> <PUBCHEM_HEAVY_ATOM_COUNT>
30

> <PUBCHEM_ATOM_DEF_STEREO_COUNT>
0

> <PUBCHEM_ATOM_UDEF_STEREO_COUNT>
3

> <PUBCHEM_BOND_DEF_STEREO_COUNT>
0

> <PUBCHEM_BOND_UDEF_STEREO_COUNT>
0

> <PUBCHEM_ISOTOPIC_ATOM_COUNT>
0

> <PUBCHEM_COMPONENT_COUNT>
1

> <PUBCHEM_CACTVS_TAUTO_COUNT>
2

> <PUBCHEM_COORDINATE_TYPE>
1
5
255

> <PUBCHEM_BONDANNOTATIONS>
18  20  3
23  24  8
23  25  8
24  27  8
25  28  8
27  30  8
28  30  8
10  8  3
9  19  3

$$$$
