27686
  -OEChem-12171208172D

 50 53  0     1  0  0  0  0  0999 V2000
    6.8834    1.9578    0.0000 O   0  0  0  0  0  0  0  0  0  0  0  0
    8.5807   -1.0620    0.0000 O   0  0  0  0  0  0  0  0  0  0  0  0
    6.8603   -0.0421    0.0000 O   0  0  0  0  0  0  0  0  0  0  0  0
    5.1350    4.9924    0.0000 O   0  0  0  0  0  0  0  0  0  0  0  0
   12.0667   -3.1611    0.0000 O   0  0  0  0  0  0  0  0  0  0  0  0
    5.1350    1.9924    0.0000 O   0  0  0  0  0  0  0  0  0  0  0  0
    9.4458   -4.6209    0.0000 O   0  0  0  0  0  0  0  0  0  0  0  0
    2.5369    4.4924    0.0000 O   0  0  0  0  0  0  0  0  0  0  0  0
   12.8941   -5.6742    0.0000 O   0  0  0  0  0  0  0  0  0  0  0  0
    3.4030    5.9924    0.0000 O   0  0  0  0  0  0  0  0  0  0  0  0
   13.7832   -4.1877    0.0000 O   0  0  0  0  0  0  0  0  0  0  0  0
    7.7320    0.4479    0.0000 C   0  0  3  0  0  0  0  0  0  0  0  0
    7.7436    1.4478    0.0000 C   0  0  0  0  0  0  0  0  0  0  0  0
    8.5922   -0.0621    0.0000 C   0  0  0  0  0  0  0  0  0  0  0  0
    6.8950    2.9578    0.0000 C   0  0  0  0  0  0  0  0  0  0  0  0
    6.0010    3.4924    0.0000 C   0  0  0  0  0  0  0  0  0  0  0  0
    9.4408   -1.5720    0.0000 C   0  0  0  0  0  0  0  0  0  0  0  0
    6.0010    4.4924    0.0000 C   0  0  0  0  0  0  0  0  0  0  0  0
   10.3349   -3.1344    0.0000 C   0  0  0  0  0  0  0  0  0  0  0  0
    9.4328   -2.6136    0.0000 C   0  0  0  0  0  0  0  0  0  0  0  0
   11.2085   -2.6478    0.0000 C   0  0  0  0  0  0  0  0  0  0  0  0
    7.8010    3.4716    0.0000 C   0  0  0  0  0  0  0  0  0  0  0  0
    5.1350    2.9924    0.0000 C   0  0  0  0  0  0  0  0  0  0  0  0
   10.3508   -1.0652    0.0000 C   0  0  0  0  0  0  0  0  0  0  0  0
    6.8950    5.0271    0.0000 C   0  0  0  0  0  0  0  0  0  0  0  0
   11.2406   -1.6067    0.0000 C   0  0  0  0  0  0  0  0  0  0  0  0
    7.8010    4.5132    0.0000 C   0  0  0  0  0  0  0  0  0  0  0  0
   10.3195   -4.1343    0.0000 C   0  0  0  0  0  0  0  0  0  0  0  0
    4.2690    3.4924    0.0000 C   0  0  0  0  0  0  0  0  0  0  0  0
    4.2690    4.4924    0.0000 C   0  0  0  0  0  0  0  0  0  0  0  0
   11.1777   -4.6476    0.0000 C   0  0  0  0  0  0  0  0  0  0  0  0
   12.0513   -4.1610    0.0000 C   0  0  0  0  0  0  0  0  0  0  0  0
    3.4030    4.9924    0.0000 C   0  0  0  0  0  0  0  0  0  0  0  0
   12.9095   -4.6743    0.0000 C   0  0  0  0  0  0  0  0  0  0  0  0
    7.1987    0.7641    0.0000 H   0  0  0  0  0  0  0  0  0  0  0  0
    8.3529    1.3331    0.0000 H   0  0  0  0  0  0  0  0  0  0  0  0
    7.9624    2.0280    0.0000 H   0  0  0  0  0  0  0  0  0  0  0  0
    9.2015   -0.1768    0.0000 H   0  0  0  0  0  0  0  0  0  0  0  0
    8.8110    0.5180    0.0000 H   0  0  0  0  0  0  0  0  0  0  0  0
    8.8947   -2.9215    0.0000 H   0  0  0  0  0  0  0  0  0  0  0  0
    8.3368    3.1595    0.0000 H   0  0  0  0  0  0  0  0  0  0  0  0
   10.3628   -0.4453    0.0000 H   0  0  0  0  0  0  0  0  0  0  0  0
    6.8878    5.6470    0.0000 H   0  0  0  0  0  0  0  0  0  0  0  0
   11.7857   -1.3113    0.0000 H   0  0  0  0  0  0  0  0  0  0  0  0
    8.3368    4.8253    0.0000 H   0  0  0  0  0  0  0  0  0  0  0  0
    6.8531   -0.6620    0.0000 H   0  0  0  0  0  0  0  0  0  0  0  0
    3.7320    3.1824    0.0000 H   0  0  0  0  0  0  0  0  0  0  0  0
   11.1681   -5.2675    0.0000 H   0  0  0  0  0  0  0  0  0  0  0  0
    2.0000    4.8024    0.0000 H   0  0  0  0  0  0  0  0  0  0  0  0
   13.4262   -5.9924    0.0000 H   0  0  0  0  0  0  0  0  0  0  0  0
  1 13  1  0  0  0  0
  1 15  1  0  0  0  0
  2 14  1  0  0  0  0
  2 17  1  0  0  0  0
  3 12  1  0  0  0  0
  3 46  1  0  0  0  0
  4 18  1  0  0  0  0
  4 30  1  0  0  0  0
  5 21  1  0  0  0  0
  5 32  1  0  0  0  0
  6 23  2  0  0  0  0
  7 28  2  0  0  0  0
  8 33  1  0  0  0  0
  8 49  1  0  0  0  0
  9 34  1  0  0  0  0
  9 50  1  0  0  0  0
 10 33  2  0  0  0  0
 11 34  2  0  0  0  0
 12 13  1  0  0  0  0
 12 14  1  0  0  0  0
 12 35  1  0  0  0  0
 13 36  1  0  0  0  0
 13 37  1  0  0  0  0
 14 38  1  0  0  0  0
 14 39  1  0  0  0  0
 15 16  1  0  0  0  0
 15 22  2  0  0  0  0
 16 18  2  0  0  0  0
 16 23  1  0  0  0  0
 17 20  2  0  0  0  0
 17 24  1  0  0  0  0
 18 25  1  0  0  0  0
 19 20  1  0  0  0  0
 19 21  2  0  0  0  0
 19 28  1  0  0  0  0
 20 40  1  0  0  0  0
 21 26  1  0  0  0  0
 22 27  1  0  0  0  0
 22 41  1  0  0  0  0
 23 29  1  0  0  0  0
 24 26  2  0  0  0  0
 24 42  1  0  0  0  0
 25 27  2  0  0  0  0
 25 43  1  0  0  0  0
 26 44  1  0  0  0  0
 27 45  1  0  0  0  0
 28 31  1  0  0  0  0
 29 30  2  0  0  0  0
 29 47  1  0  0  0  0
 30 33  1  0  0  0  0
 31 32  2  0  0  0  0
 31 48  1  0  0  0  0
 32 34  1  0  0  0  0
M  END
> <PUBCHEM_COMPOUND_CID>
27686

> <PUBCHEM_COMPOUND_CANONICALIZED>
1

> <PUBCHEM_CACTVS_COMPLEXITY>
907

> <PUBCHEM_CACTVS_HBOND_ACCEPTOR>
11

> <PUBCHEM_CACTVS_HBOND_DONOR>
3

> <PUBCHEM_CACTVS_ROTATABLE_BOND>
8

> <PUBCHEM_CACTVS_SUBSKEYS>
AAADceB4PAAAAAAAAAAAAAAAAAAAAAAAAAAwYIEAAAAAAACBQAAAGgAACAAADBSgmAIwDoAABgCIAqDSCAICCAAkIAAIiAFGCMgNNzaENR6COWCl4BULuYfK6LyOAQABCAAIAAACAAIQABAAAAAAAAAAAA==

> <PUBCHEM_IUPAC_OPENEYE_NAME>
5-[3-(2-carboxy-4-oxo-chromen-6-yl)oxy-2-hydroxy-propoxy]-4-oxo-chromene-2-carboxylic acid

> <PUBCHEM_IUPAC_CAS_NAME>
5-[3-[(2-carboxy-4-oxo-1-benzopyran-6-yl)oxy]-2-hydroxypropoxy]-4-oxo-1-benzopyran-2-carboxylic acid

> <PUBCHEM_IUPAC_NAME>
5-[3-(2-carboxy-4-oxochromen-6-yl)oxy-2-hydroxypropoxy]-4-oxochromene-2-carboxylic acid

> <PUBCHEM_IUPAC_SYSTEMATIC_NAME>
5-[3-(2-carboxy-4-oxidanylidene-chromen-6-yl)oxy-2-oxidanyl-propoxy]-4-oxidanylidene-chromene-2-carboxylic acid

> <PUBCHEM_IUPAC_TRADITIONAL_NAME>
5-[3-(2-carboxy-4-keto-chromen-6-yl)oxy-2-hydroxy-propoxy]-4-keto-chromene-2-carboxylic acid

> <PUBCHEM_IUPAC_INCHI>
InChI=1S/C23H16O11/c24-11(9-31-12-4-5-16-13(6-12)14(25)7-19(33-16)22(27)28)10-32-17-2-1-3-18-21(17)15(26)8-20(34-18)23(29)30/h1-8,11,24H,9-10H2,(H,27,28)(H,29,30)

> <PUBCHEM_IUPAC_INCHIKEY>
FSINDHDHRQZTPH-UHFFFAOYSA-N

> <PUBCHEM_XLOGP3>
1.9

> <PUBCHEM_EXACT_MASS>
468.069261

> <PUBCHEM_MOLECULAR_FORMULA>
C23H16O11

> <PUBCHEM_MOLECULAR_WEIGHT>
468.36654

> <PUBCHEM_OPENEYE_CAN_SMILES>
C1=CC2=C(C(=C1)OCC(COC3=CC4=C(C=C3)OC(=CC4=O)C(=O)O)O)C(=O)C=C(O2)C(=O)O

> <PUBCHEM_OPENEYE_ISO_SMILES>
C1=CC2=C(C(=C1)OCC(COC3=CC4=C(C=C3)OC(=CC4=O)C(=O)O)O)C(=O)C=C(O2)C(=O)O

> <PUBCHEM_CACTVS_TPSA>
166

> <PUBCHEM_MONOISOTOPIC_WEIGHT>
468.069261

> <PUBCHEM_TOTAL_CHARGE>
0

> <PUBCHEM_HEAVY_ATOM_COUNT>
34

> <PUBCHEM_ATOM_DEF_STEREO_COUNT>
0

> <PUBCHEM_ATOM_UDEF_STEREO_COUNT>
1

> <PUBCHEM_BOND_DEF_STEREO_COUNT>
0

> <PUBCHEM_BOND_UDEF_STEREO_COUNT>
0

> <PUBCHEM_ISOTOPIC_ATOM_COUNT>
0

> <PUBCHEM_COMPONENT_COUNT>
1

> <PUBCHEM_CACTVS_TAUTO_COUNT>
1

> <PUBCHEM_COORDINATE_TYPE>
1
5
255

> <PUBCHEM_BONDANNOTATIONS>
15  16  8
15  22  8
16  18  8
16  23  8
17  20  8
17  24  8
18  25  8
19  20  8
19  21  8
19  28  8
21  26  8
22  27  8
23  29  8
24  26  8
25  27  8
28  31  8
29  30  8
12  3  3
31  32  8
4  18  8
4  30  8
5  21  8
5  32  8

$$$$
