2803
  -OEChem-12171207582D

 23 24  0     0  0  0  0  0  0999 V2000
    2.0000   -0.4547    0.0000 Cl  0  0  0  0  0  0  0  0  0  0  0  0
    5.4641   -0.4547    0.0000 Cl  0  0  0  0  0  0  0  0  0  0  0  0
    4.7026    2.0398    0.0000 N   0  0  0  0  0  0  0  0  0  0  0  0
    3.7320    0.5453    0.0000 N   0  0  0  0  0  0  0  0  0  0  0  0
    5.5116    0.6386    0.0000 N   0  0  0  0  0  0  0  0  0  0  0  0
    5.6808    2.2477    0.0000 C   0  0  0  0  0  0  0  0  0  0  0  0
    6.1808    1.3817    0.0000 C   0  0  0  0  0  0  0  0  0  0  0  0
    4.5981    1.0453    0.0000 C   0  0  0  0  0  0  0  0  0  0  0  0
    3.7320   -0.4547    0.0000 C   0  0  0  0  0  0  0  0  0  0  0  0
    2.8660   -0.9547    0.0000 C   0  0  0  0  0  0  0  0  0  0  0  0
    4.5981   -0.9547    0.0000 C   0  0  0  0  0  0  0  0  0  0  0  0
    2.8660   -1.9547    0.0000 C   0  0  0  0  0  0  0  0  0  0  0  0
    4.5981   -1.9547    0.0000 C   0  0  0  0  0  0  0  0  0  0  0  0
    3.7320   -2.4547    0.0000 C   0  0  0  0  0  0  0  0  0  0  0  0
    6.2472    2.4999    0.0000 H   0  0  0  0  0  0  0  0  0  0  0  0
    5.4892    2.8374    0.0000 H   0  0  0  0  0  0  0  0  0  0  0  0
    6.5956    0.9210    0.0000 H   0  0  0  0  0  0  0  0  0  0  0  0
    6.6823    1.7461    0.0000 H   0  0  0  0  0  0  0  0  0  0  0  0
    4.2418    2.4547    0.0000 H   0  0  0  0  0  0  0  0  0  0  0  0
    3.1951    0.8553    0.0000 H   0  0  0  0  0  0  0  0  0  0  0  0
    2.3291   -2.2647    0.0000 H   0  0  0  0  0  0  0  0  0  0  0  0
    5.1350   -2.2647    0.0000 H   0  0  0  0  0  0  0  0  0  0  0  0
    3.7320   -3.0747    0.0000 H   0  0  0  0  0  0  0  0  0  0  0  0
  1 10  1  0  0  0  0
  2 11  1  0  0  0  0
  3  6  1  0  0  0  0
  3  8  1  0  0  0  0
  3 19  1  0  0  0  0
  4  8  1  0  0  0  0
  4  9  1  0  0  0  0
  4 20  1  0  0  0  0
  5  7  1  0  0  0  0
  5  8  2  0  0  0  0
  6  7  1  0  0  0  0
  6 15  1  0  0  0  0
  6 16  1  0  0  0  0
  7 17  1  0  0  0  0
  7 18  1  0  0  0  0
  9 10  2  0  0  0  0
  9 11  1  0  0  0  0
 10 12  1  0  0  0  0
 11 13  2  0  0  0  0
 12 14  2  0  0  0  0
 12 21  1  0  0  0  0
 13 14  1  0  0  0  0
 13 22  1  0  0  0  0
 14 23  1  0  0  0  0
M  END
> <PUBCHEM_COMPOUND_CID>
2803

> <PUBCHEM_COMPOUND_CANONICALIZED>
1

> <PUBCHEM_CACTVS_COMPLEXITY>
222

> <PUBCHEM_CACTVS_HBOND_ACCEPTOR>
1

> <PUBCHEM_CACTVS_HBOND_DONOR>
2

> <PUBCHEM_CACTVS_ROTATABLE_BOND>
2

> <PUBCHEM_CACTVS_SUBSKEYS>
AAADccBzAAAGAAAAAAAAAAAAAAAAAQAAAAAwAAAAAAAAAAABAAAAHAIQAAAACArBECQxwILAAACgACRCZACCAAEhBQAJiIAIRoiIYCLBm5HUIAhokAJIyCcQAAAAAAAAAACAABAAAAAAAQAAIAAAAAAAAA==

> <PUBCHEM_IUPAC_OPENEYE_NAME>
N-(2,6-dichlorophenyl)-4,5-dihydro-1H-imidazol-2-amine

> <PUBCHEM_IUPAC_CAS_NAME>
N-(2,6-dichlorophenyl)-4,5-dihydro-1H-imidazol-2-amine

> <PUBCHEM_IUPAC_NAME>
N-(2,6-dichlorophenyl)-4,5-dihydro-1H-imidazol-2-amine

> <PUBCHEM_IUPAC_SYSTEMATIC_NAME>
N-[2,6-bis(chloranyl)phenyl]-4,5-dihydro-1H-imidazol-2-amine

> <PUBCHEM_IUPAC_TRADITIONAL_NAME>
(2,6-dichlorophenyl)-(2-imidazolin-2-yl)amine

> <PUBCHEM_IUPAC_INCHI>
InChI=1S/C9H9Cl2N3/c10-6-2-1-3-7(11)8(6)14-9-12-4-5-13-9/h1-3H,4-5H2,(H2,12,13,14)

> <PUBCHEM_IUPAC_INCHIKEY>
GJSURZIOUXUGAL-UHFFFAOYSA-N

> <PUBCHEM_XLOGP3>
1.6

> <PUBCHEM_EXACT_MASS>
229.017353

> <PUBCHEM_MOLECULAR_FORMULA>
C9H9Cl2N3

> <PUBCHEM_MOLECULAR_WEIGHT>
230.09386

> <PUBCHEM_OPENEYE_CAN_SMILES>
C1CN=C(N1)NC2=C(C=CC=C2Cl)Cl

> <PUBCHEM_OPENEYE_ISO_SMILES>
C1CN=C(N1)NC2=C(C=CC=C2Cl)Cl

> <PUBCHEM_CACTVS_TPSA>
36.4

> <PUBCHEM_MONOISOTOPIC_WEIGHT>
229.017353

> <PUBCHEM_TOTAL_CHARGE>
0

> <PUBCHEM_HEAVY_ATOM_COUNT>
14

> <PUBCHEM_ATOM_DEF_STEREO_COUNT>
0

> <PUBCHEM_ATOM_UDEF_STEREO_COUNT>
0

> <PUBCHEM_BOND_DEF_STEREO_COUNT>
0

> <PUBCHEM_BOND_UDEF_STEREO_COUNT>
0

> <PUBCHEM_ISOTOPIC_ATOM_COUNT>
0

> <PUBCHEM_COMPONENT_COUNT>
1

> <PUBCHEM_CACTVS_TAUTO_COUNT>
2

> <PUBCHEM_COORDINATE_TYPE>
1
5
255

> <PUBCHEM_BONDANNOTATIONS>
10  12  8
11  13  8
12  14  8
13  14  8
9  10  8
9  11  8

$$$$
