3000502
  -OEChem-12171208242D

181183  0     1  0  0  0  0  0999 V2000
    4.0010    0.0000    0.0000 O   0  0  0  0  0  0  0  0  0  0  0  0
    4.0010   13.8100    0.0000 O   0  0  0  0  0  0  0  0  0  0  0  0
    7.4651    1.0000    0.0000 O   0  0  0  0  0  0  0  0  0  0  0  0
    7.4651   14.8100    0.0000 O   0  0  0  0  0  0  0  0  0  0  0  0
    0.5369    3.0000    0.0000 O   0  0  0  0  0  0  0  0  0  0  0  0
    0.5369   16.8100    0.0000 O   0  0  0  0  0  0  0  0  0  0  0  0
    6.2331    4.8660    0.0000 O   0  0  0  0  0  0  0  0  0  0  0  0
    6.2331   18.6760    0.0000 O   0  0  0  0  0  0  0  0  0  0  0  0
    3.1350    5.5000    0.0000 O   0  0  0  0  0  0  0  0  0  0  0  0
    1.4030    5.5000    0.0000 O   0  0  0  0  0  0  0  0  0  0  0  0
    3.1350   19.3100    0.0000 O   0  0  0  0  0  0  0  0  0  0  0  0
    4.8671    7.5000    0.0000 O   0  0  0  0  0  0  0  0  0  0  0  0
    4.8671   21.3100    0.0000 O   0  0  0  0  0  0  0  0  0  0  0  0
    9.1972    4.0000    0.0000 O   0  0  0  0  0  0  0  0  0  0  0  0
    9.1972   17.8100    0.0000 O   0  0  0  0  0  0  0  0  0  0  0  0
    6.1939    2.6133    0.0000 N   0  0  0  0  0  0  0  0  0  0  0  0
    6.1939   16.4233    0.0000 N   0  0  0  0  0  0  0  0  0  0  0  0
    5.7331    1.0000    0.0000 N   0  0  0  0  0  0  0  0  0  0  0  0
    5.7331   14.8100    0.0000 N   0  0  0  0  0  0  0  0  0  0  0  0
    5.8931    4.3191    0.0000 N   0  0  0  0  0  0  0  0  0  0  0  0
    5.8931   18.1291    0.0000 N   0  0  0  0  0  0  0  0  0  0  0  0
    3.1350    1.5000    0.0000 N   0  0  0  0  0  0  0  0  0  0  0  0
    3.1350   15.3100    0.0000 N   0  0  0  0  0  0  0  0  0  0  0  0
    7.1787    4.3191    0.0000 N   0  0  0  0  0  0  0  0  0  0  0  0
    7.1787   18.1291    0.0000 N   0  0  0  0  0  0  0  0  0  0  0  0
    5.7331    3.0000    0.0000 N   0  0  0  0  0  0  0  0  0  0  0  0
    2.2690    3.0000    0.0000 N   0  0  0  0  0  0  0  0  0  0  0  0
    5.7331   16.8100    0.0000 N   0  0  0  0  0  0  0  0  0  0  0  0
    2.2690   16.8100    0.0000 N   0  0  0  0  0  0  0  0  0  0  0  0
    0.5369    1.0000    0.0000 N   0  0  0  0  0  0  0  0  0  0  0  0
    4.0010    4.0000    0.0000 N   0  0  0  0  0  0  0  0  0  0  0  0
    0.5369   14.8100    0.0000 N   0  0  0  0  0  0  0  0  0  0  0  0
    4.0010   17.8100    0.0000 N   0  0  0  0  0  0  0  0  0  0  0  0
    5.7331    6.0000    0.0000 N   0  0  0  0  0  0  0  0  0  0  0  0
    5.7331   19.8100    0.0000 N   0  0  0  0  0  0  0  0  0  0  0  0
    7.4651    9.0000    0.0000 N   0  0  0  0  0  0  0  0  0  0  0  0
    7.4651   22.8100    0.0000 N   0  0  0  0  0  0  0  0  0  0  0  0
    8.3312    2.5000    0.0000 N   0  0  0  0  0  0  0  0  0  0  0  0
    8.3312   16.3100    0.0000 N   0  0  0  0  0  0  0  0  0  0  0  0
    4.8671   11.5000    0.0000 N   0  0  0  0  0  0  0  0  0  0  0  0
    4.8671   25.3100    0.0000 N   0  0  0  0  0  0  0  0  0  0  0  0
   10.0632    2.5000    0.0000 N   0  0  0  0  0  0  0  0  0  0  0  0
   10.0632   16.3100    0.0000 N   0  0  0  0  0  0  0  0  0  0  0  0
    5.2091    2.4397    0.0000 C   0  0  1  0  0  0  0  0  0  0  0  0
    5.2091   16.2497    0.0000 C   0  0  1  0  0  0  0  0  0  0  0  0
    4.8671    1.5000    0.0000 C   0  0  1  0  0  0  0  0  0  0  0  0
    4.8671   15.3100    0.0000 C   0  0  1  0  0  0  0  0  0  0  0  0
    4.5663    3.2057    0.0000 C   0  0  0  0  0  0  0  0  0  0  0  0
    4.5663   17.0157    0.0000 C   0  0  0  0  0  0  0  0  0  0  0  0
    4.9083    4.1454    0.0000 C   0  0  0  0  0  0  0  0  0  0  0  0
    4.9083   17.9554    0.0000 C   0  0  0  0  0  0  0  0  0  0  0  0
    4.0010    1.0000    0.0000 C   0  0  0  0  0  0  0  0  0  0  0  0
    4.0010   14.8100    0.0000 C   0  0  0  0  0  0  0  0  0  0  0  0
    6.5359    3.5530    0.0000 C   0  0  0  0  0  0  0  0  0  0  0  0
    6.5359   17.3630    0.0000 C   0  0  0  0  0  0  0  0  0  0  0  0
    2.2690    1.0000    0.0000 C   0  0  0  0  0  0  0  0  0  0  0  0
    2.2690   14.8100    0.0000 C   0  0  0  0  0  0  0  0  0  0  0  0
    6.5991    1.5000    0.0000 C   0  0  0  0  0  0  0  0  0  0  0  0
    6.5991   15.3100    0.0000 C   0  0  0  0  0  0  0  0  0  0  0  0
    1.4030    1.5000    0.0000 C   0  0  1  0  0  0  0  0  0  0  0  0
    1.4030   15.3100    0.0000 C   0  0  1  0  0  0  0  0  0  0  0  0
    6.5991    2.5000    0.0000 C   0  0  0  0  0  0  0  0  0  0  0  0
    6.5991   16.3100    0.0000 C   0  0  0  0  0  0  0  0  0  0  0  0
    4.8671    4.5000    0.0000 C   0  0  1  0  0  0  0  0  0  0  0  0
    1.4030    2.5000    0.0000 C   0  0  0  0  0  0  0  0  0  0  0  0
    4.8671   18.3100    0.0000 C   0  0  1  0  0  0  0  0  0  0  0  0
    1.4030   16.3100    0.0000 C   0  0  0  0  0  0  0  0  0  0  0  0
    2.2690    4.0000    0.0000 C   0  0  2  0  0  0  0  0  0  0  0  0
    2.2690   17.8100    0.0000 C   0  0  2  0  0  0  0  0  0  0  0  0
    4.8671    5.5000    0.0000 C   0  0  0  0  0  0  0  0  0  0  0  0
    4.8671   19.3100    0.0000 C   0  0  0  0  0  0  0  0  0  0  0  0
    5.7331    4.0000    0.0000 C   0  0  0  0  0  0  0  0  0  0  0  0
    5.7331   17.8100    0.0000 C   0  0  0  0  0  0  0  0  0  0  0  0
    6.5991    8.5000    0.0000 C   0  0  1  0  0  0  0  0  0  0  0  0
    6.5991   22.3100    0.0000 C   0  0  1  0  0  0  0  0  0  0  0  0
    3.1350    4.5000    0.0000 C   0  0  0  0  0  0  0  0  0  0  0  0
    3.1350   18.3100    0.0000 C   0  0  0  0  0  0  0  0  0  0  0  0
    5.7331    9.0000    0.0000 C   0  0  0  0  0  0  0  0  0  0  0  0
    6.5991    7.5000    0.0000 C   0  0  0  0  0  0  0  0  0  0  0  0
    5.7331   22.8100    0.0000 C   0  0  0  0  0  0  0  0  0  0  0  0
    6.5991   21.3100    0.0000 C   0  0  0  0  0  0  0  0  0  0  0  0
    7.4651    3.0000    0.0000 C   0  0  0  0  0  0  0  0  0  0  0  0
    7.4651   16.8100    0.0000 C   0  0  0  0  0  0  0  0  0  0  0  0
    1.4030    4.5000    0.0000 C   0  0  0  0  0  0  0  0  0  0  0  0
    1.4030   18.3100    0.0000 C   0  0  0  0  0  0  0  0  0  0  0  0
    5.7331   10.0000    0.0000 C   0  0  0  0  0  0  0  0  0  0  0  0
    5.7331    7.0000    0.0000 C   0  0  0  0  0  0  0  0  0  0  0  0
    5.7331   23.8100    0.0000 C   0  0  0  0  0  0  0  0  0  0  0  0
    5.7331   20.8100    0.0000 C   0  0  0  0  0  0  0  0  0  0  0  0
    4.8671   10.5000    0.0000 C   0  0  0  0  0  0  0  0  0  0  0  0
    4.8671   24.3100    0.0000 C   0  0  0  0  0  0  0  0  0  0  0  0
    9.1972    3.0000    0.0000 C   0  0  0  0  0  0  0  0  0  0  0  0
    9.1972   16.8100    0.0000 C   0  0  0  0  0  0  0  0  0  0  0  0
    5.7554    1.7886    0.0000 H   0  0  0  0  0  0  0  0  0  0  0  0
    5.7554   15.5986    0.0000 H   0  0  0  0  0  0  0  0  0  0  0  0
    4.2159    2.0464    0.0000 H   0  0  0  0  0  0  0  0  0  0  0  0
    4.2159   15.8564    0.0000 H   0  0  0  0  0  0  0  0  0  0  0  0
    4.0294    3.5157    0.0000 H   0  0  0  0  0  0  0  0  0  0  0  0
    4.1678    2.7308    0.0000 H   0  0  0  0  0  0  0  0  0  0  0  0
    4.0294   17.3257    0.0000 H   0  0  0  0  0  0  0  0  0  0  0  0
    4.1678   16.5408    0.0000 H   0  0  0  0  0  0  0  0  0  0  0  0
    5.9818    2.0307    0.0000 H   0  0  0  0  0  0  0  0  0  0  0  0
    4.9083    4.7654    0.0000 H   0  0  0  0  0  0  0  0  0  0  0  0
    4.2977    4.2531    0.0000 H   0  0  0  0  0  0  0  0  0  0  0  0
    5.9818   15.8407    0.0000 H   0  0  0  0  0  0  0  0  0  0  0  0
    4.9083   18.5754    0.0000 H   0  0  0  0  0  0  0  0  0  0  0  0
    4.2977   18.0631    0.0000 H   0  0  0  0  0  0  0  0  0  0  0  0
    5.7331    0.3800    0.0000 H   0  0  0  0  0  0  0  0  0  0  0  0
    5.7331   14.1900    0.0000 H   0  0  0  0  0  0  0  0  0  0  0  0
    3.1350    2.1200    0.0000 H   0  0  0  0  0  0  0  0  0  0  0  0
    3.1350   15.9300    0.0000 H   0  0  0  0  0  0  0  0  0  0  0  0
    1.8705    0.5251    0.0000 H   0  0  0  0  0  0  0  0  0  0  0  0
    2.6675    0.5251    0.0000 H   0  0  0  0  0  0  0  0  0  0  0  0
    1.8705   14.3351    0.0000 H   0  0  0  0  0  0  0  0  0  0  0  0
    2.6675   14.3351    0.0000 H   0  0  0  0  0  0  0  0  0  0  0  0
    1.4030    0.8800    0.0000 H   0  0  0  0  0  0  0  0  0  0  0  0
    0.8660   15.6200    0.0000 H   0  0  0  0  0  0  0  0  0  0  0  0
    7.2864    4.9297    0.0000 H   0  0  0  0  0  0  0  0  0  0  0  0
    7.7893    4.2114    0.0000 H   0  0  0  0  0  0  0  0  0  0  0  0
    7.2864   18.7397    0.0000 H   0  0  0  0  0  0  0  0  0  0  0  0
    7.7893   18.0214    0.0000 H   0  0  0  0  0  0  0  0  0  0  0  0
    4.3301    4.8100    0.0000 H   0  0  0  0  0  0  0  0  0  0  0  0
    4.3301   18.6200    0.0000 H   0  0  0  0  0  0  0  0  0  0  0  0
    1.7320    3.6900    0.0000 H   0  0  0  0  0  0  0  0  0  0  0  0
    1.7320   17.5000    0.0000 H   0  0  0  0  0  0  0  0  0  0  0  0
    5.1962    3.3100    0.0000 H   0  0  0  0  0  0  0  0  0  0  0  0
    4.6550    6.0826    0.0000 H   0  0  0  0  0  0  0  0  0  0  0  0
    4.2565    5.3923    0.0000 H   0  0  0  0  0  0  0  0  0  0  0  0
    2.8059    2.6900    0.0000 H   0  0  0  0  0  0  0  0  0  0  0  0
    5.1962   17.1200    0.0000 H   0  0  0  0  0  0  0  0  0  0  0  0
    4.6550   19.8926    0.0000 H   0  0  0  0  0  0  0  0  0  0  0  0
    4.2565   19.2023    0.0000 H   0  0  0  0  0  0  0  0  0  0  0  0
    2.8059   16.5000    0.0000 H   0  0  0  0  0  0  0  0  0  0  0  0
    0.5369    0.3800    0.0000 H   0  0  0  0  0  0  0  0  0  0  0  0
    0.0000    1.3100    0.0000 H   0  0  0  0  0  0  0  0  0  0  0  0
    3.6911    3.4630    0.0000 H   0  0  0  0  0  0  0  0  0  0  0  0
    6.5991    9.1200    0.0000 H   0  0  0  0  0  0  0  0  0  0  0  0
    0.5369   14.1900    0.0000 H   0  0  0  0  0  0  0  0  0  0  0  0
    0.0000   15.1200    0.0000 H   0  0  0  0  0  0  0  0  0  0  0  0
    6.5991   22.9300    0.0000 H   0  0  0  0  0  0  0  0  0  0  0  0
    3.6911   17.2730    0.0000 H   0  0  0  0  0  0  0  0  0  0  0  0
    5.1225    9.1077    0.0000 H   0  0  0  0  0  0  0  0  0  0  0  0
    5.5210    8.4174    0.0000 H   0  0  0  0  0  0  0  0  0  0  0  0
    6.8112    6.9174    0.0000 H   0  0  0  0  0  0  0  0  0  0  0  0
    7.2097    7.6077    0.0000 H   0  0  0  0  0  0  0  0  0  0  0  0
    5.1225   22.9177    0.0000 H   0  0  0  0  0  0  0  0  0  0  0  0
    5.5210   22.2274    0.0000 H   0  0  0  0  0  0  0  0  0  0  0  0
    6.8112   20.7274    0.0000 H   0  0  0  0  0  0  0  0  0  0  0  0
    7.2097   21.4177    0.0000 H   0  0  0  0  0  0  0  0  0  0  0  0
    7.6772    3.5826    0.0000 H   0  0  0  0  0  0  0  0  0  0  0  0
    7.6772   17.3926    0.0000 H   0  0  0  0  0  0  0  0  0  0  0  0
    0.7924    4.6077    0.0000 H   0  0  0  0  0  0  0  0  0  0  0  0
    1.1909    3.9174    0.0000 H   0  0  0  0  0  0  0  0  0  0  0  0
    6.2700    5.6900    0.0000 H   0  0  0  0  0  0  0  0  0  0  0  0
    6.2700   19.5000    0.0000 H   0  0  0  0  0  0  0  0  0  0  0  0
    6.3437    9.8923    0.0000 H   0  0  0  0  0  0  0  0  0  0  0  0
    5.9451   10.5826    0.0000 H   0  0  0  0  0  0  0  0  0  0  0  0
    1.7130   18.8469    0.0000 H   0  0  0  0  0  0  0  0  0  0  0  0
    0.8660   18.6200    0.0000 H   0  0  0  0  0  0  0  0  0  0  0  0
    1.0930   17.7731    0.0000 H   0  0  0  0  0  0  0  0  0  0  0  0
    6.3437   23.7023    0.0000 H   0  0  0  0  0  0  0  0  0  0  0  0
    5.9451   24.3926    0.0000 H   0  0  0  0  0  0  0  0  0  0  0  0
    4.2565   10.6077    0.0000 H   0  0  0  0  0  0  0  0  0  0  0  0
    4.6550    9.9174    0.0000 H   0  0  0  0  0  0  0  0  0  0  0  0
    7.4651    9.6200    0.0000 H   0  0  0  0  0  0  0  0  0  0  0  0
    8.0021    8.6900    0.0000 H   0  0  0  0  0  0  0  0  0  0  0  0
    4.2565   24.4177    0.0000 H   0  0  0  0  0  0  0  0  0  0  0  0
    4.6550   23.7274    0.0000 H   0  0  0  0  0  0  0  0  0  0  0  0
    7.4651   23.4300    0.0000 H   0  0  0  0  0  0  0  0  0  0  0  0
    8.0021   22.5000    0.0000 H   0  0  0  0  0  0  0  0  0  0  0  0
    8.3312    1.8800    0.0000 H   0  0  0  0  0  0  0  0  0  0  0  0
    8.3312   15.6900    0.0000 H   0  0  0  0  0  0  0  0  0  0  0  0
    0.8660    5.8100    0.0000 H   0  0  0  0  0  0  0  0  0  0  0  0
    4.3301   11.8100    0.0000 H   0  0  0  0  0  0  0  0  0  0  0  0
    5.4040   11.8100    0.0000 H   0  0  0  0  0  0  0  0  0  0  0  0
    4.3301   25.6200    0.0000 H   0  0  0  0  0  0  0  0  0  0  0  0
    5.4040   25.6200    0.0000 H   0  0  0  0  0  0  0  0  0  0  0  0
   10.6002    2.8100    0.0000 H   0  0  0  0  0  0  0  0  0  0  0  0
   10.0632    1.8800    0.0000 H   0  0  0  0  0  0  0  0  0  0  0  0
   10.6002   16.6200    0.0000 H   0  0  0  0  0  0  0  0  0  0  0  0
   10.0632   15.6900    0.0000 H   0  0  0  0  0  0  0  0  0  0  0  0
  1 52  2  0  0  0  0
  2 53  2  0  0  0  0
  3 58  2  0  0  0  0
  4 59  2  0  0  0  0
  5 65  2  0  0  0  0
  6 67  2  0  0  0  0
  7 72  2  0  0  0  0
  8 73  2  0  0  0  0
  9 76  2  0  0  0  0
 10 84  1  0  0  0  0
 10173  1  0  0  0  0
 11 77  2  0  0  0  0
 12 87  2  0  0  0  0
 13 89  2  0  0  0  0
 14 92  2  0  0  0  0
 15 93  2  0  0  0  0
 16 44  1  0  0  0  0
 16 54  1  0  0  0  0
 16102  1  0  0  0  0
 17 45  1  0  0  0  0
 17 55  1  0  0  0  0
 17105  1  0  0  0  0
 18 46  1  0  0  0  0
 18 58  1  0  0  0  0
 18108  1  0  0  0  0
 19 47  1  0  0  0  0
 19 59  1  0  0  0  0
 19109  1  0  0  0  0
 20 50  1  0  0  0  0
 20 54  2  0  0  0  0
 21 51  1  0  0  0  0
 21 55  2  0  0  0  0
 22 52  1  0  0  0  0
 22 56  1  0  0  0  0
 22110  1  0  0  0  0
 23 53  1  0  0  0  0
 23 57  1  0  0  0  0
 23111  1  0  0  0  0
 24 54  1  0  0  0  0
 24118  1  0  0  0  0
 24119  1  0  0  0  0
 25 55  1  0  0  0  0
 25120  1  0  0  0  0
 25121  1  0  0  0  0
 26 62  1  0  0  0  0
 26 72  1  0  0  0  0
 26126  1  0  0  0  0
 27 65  1  0  0  0  0
 27 68  1  0  0  0  0
 27129  1  0  0  0  0
 28 63  1  0  0  0  0
 28 73  1  0  0  0  0
 28130  1  0  0  0  0
 29 67  1  0  0  0  0
 29 69  1  0  0  0  0
 29133  1  0  0  0  0
 60 30  1  6  0  0  0
 30134  1  0  0  0  0
 30135  1  0  0  0  0
 31 64  1  0  0  0  0
 31 76  1  0  0  0  0
 31136  1  0  0  0  0
 61 32  1  6  0  0  0
 32138  1  0  0  0  0
 32139  1  0  0  0  0
 33 66  1  0  0  0  0
 33 77  1  0  0  0  0
 33141  1  0  0  0  0
 34 70  1  0  0  0  0
 34 87  1  0  0  0  0
 34154  1  0  0  0  0
 35 71  1  0  0  0  0
 35 89  1  0  0  0  0
 35155  1  0  0  0  0
 74 36  1  6  0  0  0
 36165  1  0  0  0  0
 36166  1  0  0  0  0
 75 37  1  6  0  0  0
 37169  1  0  0  0  0
 37170  1  0  0  0  0
 38 82  1  0  0  0  0
 38 92  1  0  0  0  0
 38171  1  0  0  0  0
 39 83  1  0  0  0  0
 39 93  1  0  0  0  0
 39172  1  0  0  0  0
 40 90  1  0  0  0  0
 40174  1  0  0  0  0
 40175  1  0  0  0  0
 41 91  1  0  0  0  0
 41176  1  0  0  0  0
 41177  1  0  0  0  0
 42 92  1  0  0  0  0
 42178  1  0  0  0  0
 42179  1  0  0  0  0
 43 93  1  0  0  0  0
 43180  1  0  0  0  0
 43181  1  0  0  0  0
 44 46  1  0  0  0  0
 44 48  1  0  0  0  0
 44 94  1  6  0  0  0
 45 47  1  0  0  0  0
 45 49  1  0  0  0  0
 45 95  1  6  0  0  0
 46 52  1  0  0  0  0
 46 96  1  1  0  0  0
 47 53  1  0  0  0  0
 47 97  1  1  0  0  0
 48 50  1  0  0  0  0
 48 98  1  0  0  0  0
 48 99  1  0  0  0  0
 49 51  1  0  0  0  0
 49100  1  0  0  0  0
 49101  1  0  0  0  0
 50103  1  0  0  0  0
 50104  1  0  0  0  0
 51106  1  0  0  0  0
 51107  1  0  0  0  0
 56 60  1  0  0  0  0
 56112  1  0  0  0  0
 56113  1  0  0  0  0
 57 61  1  0  0  0  0
 57114  1  0  0  0  0
 57115  1  0  0  0  0
 58 62  1  0  0  0  0
 59 63  1  0  0  0  0
 60 65  1  0  0  0  0
 60116  1  0  0  0  0
 61 67  1  0  0  0  0
 61117  1  0  0  0  0
 62 82  2  0  0  0  0
 63 83  2  0  0  0  0
 64 70  1  1  0  0  0
 64 72  1  0  0  0  0
 64122  1  0  0  0  0
 66 71  1  1  0  0  0
 66 73  1  0  0  0  0
 66123  1  0  0  0  0
 68 76  1  0  0  0  0
 68 84  1  1  0  0  0
 68124  1  0  0  0  0
 69 77  1  0  0  0  0
 69 85  1  1  0  0  0
 69125  1  0  0  0  0
 70127  1  0  0  0  0
 70128  1  0  0  0  0
 71131  1  0  0  0  0
 71132  1  0  0  0  0
 74 78  1  0  0  0  0
 74 79  1  0  0  0  0
 74137  1  0  0  0  0
 75 80  1  0  0  0  0
 75 81  1  0  0  0  0
 75140  1  0  0  0  0
 78 86  1  0  0  0  0
 78142  1  0  0  0  0
 78143  1  0  0  0  0
 79 87  1  0  0  0  0
 79144  1  0  0  0  0
 79145  1  0  0  0  0
 80 88  1  0  0  0  0
 80146  1  0  0  0  0
 80147  1  0  0  0  0
 81 89  1  0  0  0  0
 81148  1  0  0  0  0
 81149  1  0  0  0  0
 82150  1  0  0  0  0
 83151  1  0  0  0  0
 84152  1  0  0  0  0
 84153  1  0  0  0  0
 85158  1  0  0  0  0
 85159  1  0  0  0  0
 85160  1  0  0  0  0
 86 90  1  0  0  0  0
 86156  1  0  0  0  0
 86157  1  0  0  0  0
 88 91  1  0  0  0  0
 88161  1  0  0  0  0
 88162  1  0  0  0  0
 90163  1  0  0  0  0
 90164  1  0  0  0  0
 91167  1  0  0  0  0
 91168  1  0  0  0  0
M  END
> <PUBCHEM_COMPOUND_CID>
3000502

> <PUBCHEM_COMPOUND_CANONICALIZED>
1

> <PUBCHEM_CACTVS_COMPLEXITY>
2470

> <PUBCHEM_CACTVS_HBOND_ACCEPTOR>
23

> <PUBCHEM_CACTVS_HBOND_DONOR>
27

> <PUBCHEM_CACTVS_ROTATABLE_BOND>
19

> <PUBCHEM_CACTVS_SUBSKEYS>
AAADcfB//AAAAAAAAAAAAAAAAAAAAAAAAAAgQAAAAAAAAAAAAAAAHgAQCAAACCjhgAYDAALAAgCoAAVWdACAAAEAAgABAIGIAECCUB4AyCAUQAACNgKQAMEYCQAAAAAAAAAAAAAAAAAAAAAAAAAAAAAAAA==

> <PUBCHEM_IUPAC_OPENEYE_NAME>
(3S)-3,6-diamino-N-[[(2S,5S,8E,11S,15S)-15-amino-11-[(6R)-2-amino-1,4,5,6-tetrahydropyrimidin-6-yl]-2-(hydroxymethyl)-3,6,9,12,16-pentaoxo-8-(ureidomethylene)-1,4,7,10,13-pentazacyclohexadec-5-yl]methyl]hexanamide;(3S)-3,6-diamino-N-[[(2S,5S,8E,11S,15S)-15-amino-11-[(6R)-2-amino-1,4,5,6-tetrahydropyrimidin-6-yl]-2-methyl-3,6,9,12,16-pentaoxo-8-(ureidomethylene)-1,4,7,10,13-pentazacyclohexadec-5-yl]methyl]hexanamide

> <PUBCHEM_IUPAC_CAS_NAME>
(3S)-3,6-diamino-N-[[(2S,5S,8E,11S,15S)-15-amino-11-[(6R)-2-amino-1,4,5,6-tetrahydropyrimidin-6-yl]-8-[(carbamoylamino)methylidene]-2-(hydroxymethyl)-3,6,9,12,16-pentaoxo-1,4,7,10,13-pentazacyclohexadec-5-yl]methyl]hexanamide;(3S)-3,6-diamino-N-[[(2S,5S,8E,11S,15S)-15-amino-11-[(6R)-2-amino-1,4,5,6-tetrahydropyrimidin-6-yl]-8-[(carbamoylamino)methylidene]-2-methyl-3,6,9,12,16-pentaoxo-1,4,7,10,13-pentazacyclohexadec-5-yl]methyl]hexanamide

> <PUBCHEM_IUPAC_NAME>
(3S)-3,6-diamino-N-[[(2S,5S,8E,11S,15S)-15-amino-11-[(6R)-2-amino-1,4,5,6-tetrahydropyrimidin-6-yl]-8-[(carbamoylamino)methylidene]-2-(hydroxymethyl)-3,6,9,12,16-pentaoxo-1,4,7,10,13-pentazacyclohexadec-5-yl]methyl]hexanamide;(3S)-3,6-diamino-N-[[(2S,5S,8E,11S,15S)-15-amino-11-[(6R)-2-amino-1,4,5,6-tetrahydropyrimidin-6-yl]-8-[(carbamoylamino)methylidene]-2-methyl-3,6,9,12,16-pentaoxo-1,4,7,10,13-pentazacyclohexadec-5-yl]methyl]hexanamide

> <PUBCHEM_IUPAC_SYSTEMATIC_NAME>
(3S)-N-[[(2S,5S,8E,11S,15S)-8-[(aminocarbonylamino)methylidene]-15-azanyl-11-[(6R)-2-azanyl-1,4,5,6-tetrahydropyrimidin-6-yl]-2-(hydroxymethyl)-3,6,9,12,16-pentakis(oxidanylidene)-1,4,7,10,13-pentazacyclohexadec-5-yl]methyl]-3,6-bis(azanyl)hexanamide;(3S)-N-[[(2S,5S,8E,11S,15S)-8-[(aminocarbonylamino)methylidene]-15-azanyl-11-[(6R)-2-azanyl-1,4,5,6-tetrahydropyrimidin-6-yl]-2-methyl-3,6,9,12,16-pentakis(oxidanylidene)-1,4,7,10,13-pentazacyclohexadec-5-yl]methyl]-3,6-bis(azanyl)hexanamide

> <PUBCHEM_IUPAC_TRADITIONAL_NAME>
(3S)-3,6-diamino-N-[[(2S,5S,8E,11S,15S)-15-amino-11-[(6R)-2-amino-1,4,5,6-tetrahydropyrimidin-6-yl]-3,6,9,12,16-pentaketo-2-methylol-8-(ureidomethylene)-1,4,7,10,13-pentazacyclohexadec-5-yl]methyl]hexanamide;(3S)-3,6-diamino-N-[[(2S,5S,8E,11S,15S)-15-amino-11-[(6R)-2-amino-1,4,5,6-tetrahydropyrimidin-6-yl]-3,6,9,12,16-pentaketo-2-methyl-8-(ureidomethylene)-1,4,7,10,13-pentazacyclohexadec-5-yl]methyl]hexanamide

> <PUBCHEM_IUPAC_INCHI>
InChI=1S/C25H44N14O8.C25H44N14O7/c26-4-1-2-11(27)6-17(41)32-8-14-20(43)35-15(9-34-25(30)47)21(44)39-18(13-3-5-31-24(29)38-13)23(46)33-7-12(28)19(42)37-16(10-40)22(45)36-14;1-11-19(41)36-15(9-32-17(40)7-12(27)3-2-5-26)21(43)37-16(10-34-25(30)46)22(44)39-18(14-4-6-31-24(29)38-14)23(45)33-8-13(28)20(42)35-11/h9,11-14,16,18,40H,1-8,10,26-28H2,(H,32,41)(H,33,46)(H,35,43)(H,36,45)(H,37,42)(H,39,44)(H3,29,31,38)(H3,30,34,47);10-15,18H,2-9,26-28H2,1H3,(H,32,40)(H,33,45)(H,35,42)(H,36,41)(H,37,43)(H,39,44)(H3,29,31,38)(H3,30,34,46)/b15-9+;16-10+/t11-,12-,13+,14-,16-,18-;11-,12-,13-,14+,15-,18-/m00/s1

> <PUBCHEM_IUPAC_INCHIKEY>
VCOPTHOUUNAYKQ-WBTCAYNUSA-N

> <PUBCHEM_EXACT_MASS>
1320.698394

> <PUBCHEM_MOLECULAR_FORMULA>
C50H88N28O15

> <PUBCHEM_MOLECULAR_WEIGHT>
1321.41232

> <PUBCHEM_OPENEYE_CAN_SMILES>
CC1C(=O)NC(C(=O)NC(=CNC(=O)N)C(=O)NC(C(=O)NCC(C(=O)N1)N)C2CCN=C(N2)N)CNC(=O)CC(CCCN)N.C1CN=C(NC1C2C(=O)NCC(C(=O)NC(C(=O)NC(C(=O)NC(=CNC(=O)N)C(=O)N2)CNC(=O)CC(CCCN)N)CO)N)N

> <PUBCHEM_OPENEYE_ISO_SMILES>
C[C@H]1C(=O)N[C@H](C(=O)N/C(=C/NC(=O)N)/C(=O)N[C@H](C(=O)NC[C@@H](C(=O)N1)N)[C@H]2CCN=C(N2)N)CNC(=O)C[C@H](CCCN)N.C1CN=C(N[C@H]1[C@H]2C(=O)NC[C@@H](C(=O)N[C@H](C(=O)N[C@H](C(=O)N/C(=C/NC(=O)N)/C(=O)N2)CNC(=O)C[C@H](CCCN)N)CO)N)N

> <PUBCHEM_CACTVS_TPSA>
737

> <PUBCHEM_MONOISOTOPIC_WEIGHT>
1320.698394

> <PUBCHEM_TOTAL_CHARGE>
0

> <PUBCHEM_HEAVY_ATOM_COUNT>
93

> <PUBCHEM_ATOM_DEF_STEREO_COUNT>
12

> <PUBCHEM_ATOM_UDEF_STEREO_COUNT>
0

> <PUBCHEM_BOND_DEF_STEREO_COUNT>
2

> <PUBCHEM_BOND_UDEF_STEREO_COUNT>
0

> <PUBCHEM_ISOTOPIC_ATOM_COUNT>
0

> <PUBCHEM_COMPONENT_COUNT>
2

> <PUBCHEM_CACTVS_TAUTO_COUNT>
1001

> <PUBCHEM_COORDINATE_TYPE>
1
5
255

> <PUBCHEM_BONDANNOTATIONS>
60  30  6
61  32  6
74  36  6
75  37  6
44  94  6
45  95  6
46  96  5
47  97  5
64  70  5
66  71  5
68  84  5
69  85  5

$$$$
