3075
  -OEChem-12171207592D

 56 58  0     1  0  0  0  0  0999 V2000
    5.9088   -1.0081    0.0000 S   0  0  0  0  0  0  0  0  0  0  0  0
    3.5000    0.1154    0.0000 O   0  0  0  0  0  0  0  0  0  0  0  0
    4.3104    1.7982    0.0000 O   0  0  0  0  0  0  0  0  0  0  0  0
    2.4399   -3.9129    0.0000 O   0  0  0  0  0  0  0  0  0  0  0  0
    3.5000    1.8474    0.0000 O   0  0  0  0  0  0  0  0  0  0  0  0
    5.9088    1.2388    0.0000 N   0  0  0  0  0  0  0  0  0  0  0  0
    5.6208    3.8689    0.0000 N   0  3  0  0  0  0  0  0  0  0  0  0
    6.1313    2.2138    0.0000 C   0  0  0  0  0  0  0  0  0  0  0  0
    4.5000    0.1154    0.0000 C   0  0  3  0  0  0  0  0  0  0  0  0
    4.9339   -0.7856    0.0000 C   0  0  3  0  0  0  0  0  0  0  0  0
    5.3983    2.8939    0.0000 C   0  0  0  0  0  0  0  0  0  0  0  0
    4.9339    1.0163    0.0000 C   0  0  0  0  0  0  0  0  0  0  0  0
    6.6906    0.6154    0.0000 C   0  0  0  0  0  0  0  0  0  0  0  0
    6.6906   -0.3846    0.0000 C   0  0  0  0  0  0  0  0  0  0  0  0
    4.3104   -1.5674    0.0000 C   0  0  0  0  0  0  0  0  0  0  0  0
    5.8433    4.8438    0.0000 C   0  0  0  0  0  0  0  0  0  0  0  0
    4.6459    4.0914    0.0000 C   0  0  0  0  0  0  0  0  0  0  0  0
    7.5846    1.1500    0.0000 C   0  0  0  0  0  0  0  0  0  0  0  0
    7.5846   -0.9193    0.0000 C   0  0  0  0  0  0  0  0  0  0  0  0
    3.3216   -1.4184    0.0000 C   0  0  0  0  0  0  0  0  0  0  0  0
    4.6757   -2.4983    0.0000 C   0  0  0  0  0  0  0  0  0  0  0  0
    8.4906    0.6362    0.0000 C   0  0  0  0  0  0  0  0  0  0  0  0
    8.4906   -0.4055    0.0000 C   0  0  0  0  0  0  0  0  0  0  0  0
    2.6981   -2.2002    0.0000 C   0  0  0  0  0  0  0  0  0  0  0  0
    4.0522   -3.2801    0.0000 C   0  0  0  0  0  0  0  0  0  0  0  0
    3.0000    0.9814    0.0000 C   0  0  0  0  0  0  0  0  0  0  0  0
    3.0634   -3.1311    0.0000 C   0  0  0  0  0  0  0  0  0  0  0  0
    2.0000    0.9814    0.0000 C   0  0  0  0  0  0  0  0  0  0  0  0
    2.8053   -4.8438    0.0000 C   0  0  0  0  0  0  0  0  0  0  0  0
    6.7026    1.9730    0.0000 H   0  0  0  0  0  0  0  0  0  0  0  0
    6.4677    2.7346    0.0000 H   0  0  0  0  0  0  0  0  0  0  0  0
    4.1701    0.6403    0.0000 H   0  0  0  0  0  0  0  0  0  0  0  0
    5.1387   -1.3708    0.0000 H   0  0  0  0  0  0  0  0  0  0  0  0
    4.8270    3.1348    0.0000 H   0  0  0  0  0  0  0  0  0  0  0  0
    5.0619    2.3731    0.0000 H   0  0  0  0  0  0  0  0  0  0  0  0
    6.2253    3.7309    0.0000 H   0  0  0  0  0  0  0  0  0  0  0  0
    6.4478    4.7058    0.0000 H   0  0  0  0  0  0  0  0  0  0  0  0
    5.9813    5.4483    0.0000 H   0  0  0  0  0  0  0  0  0  0  0  0
    5.2389    4.9818    0.0000 H   0  0  0  0  0  0  0  0  0  0  0  0
    4.7838    4.6959    0.0000 H   0  0  0  0  0  0  0  0  0  0  0  0
    4.0414    4.2294    0.0000 H   0  0  0  0  0  0  0  0  0  0  0  0
    4.5079    3.4870    0.0000 H   0  0  0  0  0  0  0  0  0  0  0  0
    7.5774    1.7700    0.0000 H   0  0  0  0  0  0  0  0  0  0  0  0
    7.5774   -1.5393    0.0000 H   0  0  0  0  0  0  0  0  0  0  0  0
    3.0950   -0.8413    0.0000 H   0  0  0  0  0  0  0  0  0  0  0  0
    5.2888   -2.5907    0.0000 H   0  0  0  0  0  0  0  0  0  0  0  0
    9.0264    0.9482    0.0000 H   0  0  0  0  0  0  0  0  0  0  0  0
    9.0264   -0.7175    0.0000 H   0  0  0  0  0  0  0  0  0  0  0  0
    2.0850   -2.1078    0.0000 H   0  0  0  0  0  0  0  0  0  0  0  0
    4.2788   -3.8573    0.0000 H   0  0  0  0  0  0  0  0  0  0  0  0
    2.0000    1.6014    0.0000 H   0  0  0  0  0  0  0  0  0  0  0  0
    1.3800    0.9814    0.0000 H   0  0  0  0  0  0  0  0  0  0  0  0
    2.0000    0.3614    0.0000 H   0  0  0  0  0  0  0  0  0  0  0  0
    2.2281   -5.0703    0.0000 H   0  0  0  0  0  0  0  0  0  0  0  0
    3.0318   -5.4210    0.0000 H   0  0  0  0  0  0  0  0  0  0  0  0
    3.3824   -4.6173    0.0000 H   0  0  0  0  0  0  0  0  0  0  0  0
  1 10  1  0  0  0  0
  1 14  1  0  0  0  0
  2  9  1  0  0  0  0
  2 26  1  0  0  0  0
  3 12  2  0  0  0  0
  4 27  1  0  0  0  0
  4 29  1  0  0  0  0
  5 26  2  0  0  0  0
  6  8  1  0  0  0  0
  6 12  1  0  0  0  0
  6 13  1  0  0  0  0
  7 11  1  0  0  0  0
  7 16  1  0  0  0  0
  7 17  1  0  0  0  0
  7 36  1  0  0  0  0
  8 11  1  0  0  0  0
  8 30  1  0  0  0  0
  8 31  1  0  0  0  0
  9 10  1  0  0  0  0
  9 12  1  0  0  0  0
  9 32  1  0  0  0  0
 10 15  1  0  0  0  0
 10 33  1  0  0  0  0
 11 34  1  0  0  0  0
 11 35  1  0  0  0  0
 13 14  1  0  0  0  0
 13 18  2  0  0  0  0
 14 19  2  0  0  0  0
 15 20  2  0  0  0  0
 15 21  1  0  0  0  0
 16 37  1  0  0  0  0
 16 38  1  0  0  0  0
 16 39  1  0  0  0  0
 17 40  1  0  0  0  0
 17 41  1  0  0  0  0
 17 42  1  0  0  0  0
 18 22  1  0  0  0  0
 18 43  1  0  0  0  0
 19 23  1  0  0  0  0
 19 44  1  0  0  0  0
 20 24  1  0  0  0  0
 20 45  1  0  0  0  0
 21 25  2  0  0  0  0
 21 46  1  0  0  0  0
 22 23  2  0  0  0  0
 22 47  1  0  0  0  0
 23 48  1  0  0  0  0
 24 27  2  0  0  0  0
 24 49  1  0  0  0  0
 25 27  1  0  0  0  0
 25 50  1  0  0  0  0
 26 28  1  0  0  0  0
 28 51  1  0  0  0  0
 28 52  1  0  0  0  0
 28 53  1  0  0  0  0
 29 54  1  0  0  0  0
 29 55  1  0  0  0  0
 29 56  1  0  0  0  0
M  CHG  1   7   1
M  END
> <PUBCHEM_COMPOUND_CID>
3075

> <PUBCHEM_COMPOUND_CANONICALIZED>
1

> <PUBCHEM_CACTVS_COMPLEXITY>
565

> <PUBCHEM_CACTVS_HBOND_ACCEPTOR>
5

> <PUBCHEM_CACTVS_HBOND_DONOR>
1

> <PUBCHEM_CACTVS_ROTATABLE_BOND>
7

> <PUBCHEM_CACTVS_SUBSKEYS>
AAADceB7OABAAAAAAAAAAAAAAAAAAAAAAAAwYAAABYAAAAABQAAAHgQQAAAADBzl2Aayz4PABAiIAiXSWAKCCAAhKhAIiJ1ObIgOZjLksZ+XMChk1hH46AeYyKCOIAAAAAAAAQBAAAAAAAACAAAAAAAAAA==

> <PUBCHEM_IUPAC_OPENEYE_NAME>
2-[3-acetoxy-2-(4-methoxyphenyl)-4-oxo-2,3-dihydro-1,5-benzothiazepin-5-yl]ethyl-dimethyl-ammonium

> <PUBCHEM_IUPAC_CAS_NAME>
2-[3-acetyloxy-2-(4-methoxyphenyl)-4-oxo-2,3-dihydro-1,5-benzothiazepin-5-yl]ethyl-dimethylammonium

> <PUBCHEM_IUPAC_NAME>
2-[3-acetyloxy-2-(4-methoxyphenyl)-4-oxo-2,3-dihydro-1,5-benzothiazepin-5-yl]ethyl-dimethylazanium

> <PUBCHEM_IUPAC_SYSTEMATIC_NAME>
2-[3-acetyloxy-2-(4-methoxyphenyl)-4-oxidanylidene-2,3-dihydro-1,5-benzothiazepin-5-yl]ethyl-dimethyl-azanium

> <PUBCHEM_IUPAC_TRADITIONAL_NAME>
2-[3-acetoxy-4-keto-2-(4-methoxyphenyl)-2,3-dihydro-1,5-benzothiazepin-5-yl]ethyl-dimethyl-ammonium

> <PUBCHEM_IUPAC_INCHI>
InChI=1S/C22H26N2O4S/c1-15(25)28-20-21(16-9-11-17(27-4)12-10-16)29-19-8-6-5-7-18(19)24(22(20)26)14-13-23(2)3/h5-12,20-21H,13-14H2,1-4H3/p+1

> <PUBCHEM_IUPAC_INCHIKEY>
HSUGRBWQSSZJOP-UHFFFAOYSA-O

> <PUBCHEM_XLOGP3_AA>
3.1

> <PUBCHEM_EXACT_MASS>
415.169153

> <PUBCHEM_MOLECULAR_FORMULA>
C22H27N2O4S+

> <PUBCHEM_MOLECULAR_WEIGHT>
415.52578

> <PUBCHEM_OPENEYE_CAN_SMILES>
CC(=O)OC1C(SC2=CC=CC=C2N(C1=O)CC[NH+](C)C)C3=CC=C(C=C3)OC

> <PUBCHEM_OPENEYE_ISO_SMILES>
CC(=O)OC1C(SC2=CC=CC=C2N(C1=O)CC[NH+](C)C)C3=CC=C(C=C3)OC

> <PUBCHEM_CACTVS_TPSA>
85.6

> <PUBCHEM_MONOISOTOPIC_WEIGHT>
415.169153

> <PUBCHEM_TOTAL_CHARGE>
1

> <PUBCHEM_HEAVY_ATOM_COUNT>
29

> <PUBCHEM_ATOM_DEF_STEREO_COUNT>
0

> <PUBCHEM_ATOM_UDEF_STEREO_COUNT>
2

> <PUBCHEM_BOND_DEF_STEREO_COUNT>
0

> <PUBCHEM_BOND_UDEF_STEREO_COUNT>
0

> <PUBCHEM_ISOTOPIC_ATOM_COUNT>
0

> <PUBCHEM_COMPONENT_COUNT>
1

> <PUBCHEM_CACTVS_TAUTO_COUNT>
2

> <PUBCHEM_COORDINATE_TYPE>
1
5
255

> <PUBCHEM_BONDANNOTATIONS>
10  15  3
13  14  8
13  18  8
14  19  8
15  20  8
15  21  8
18  22  8
19  23  8
9  2  3
20  24  8
21  25  8
22  23  8
24  27  8
25  27  8

$$$$
