3152
  -OEChem-12171207592D

 57 60  0     1  0  0  0  0  0999 V2000
    5.8550    2.9203    0.0000 O   0  0  0  0  0  0  0  0  0  0  0  0
    2.0000    0.1651    0.0000 O   0  0  0  0  0  0  0  0  0  0  0  0
    2.0000    2.1651    0.0000 O   0  0  0  0  0  0  0  0  0  0  0  0
    8.6279   -1.4330    0.0000 N   0  0  0  0  0  0  0  0  0  0  0  0
    7.6279    0.2990    0.0000 C   0  0  0  0  0  0  0  0  0  0  0  0
    7.1279    1.1651    0.0000 C   0  0  0  0  0  0  0  0  0  0  0  0
    6.1279    1.1651    0.0000 C   0  0  3  0  0  0  0  0  0  0  0  0
    8.6279    0.2990    0.0000 C   0  0  0  0  0  0  0  0  0  0  0  0
    7.1279   -0.5670    0.0000 C   0  0  0  0  0  0  0  0  0  0  0  0
    9.1279   -0.5670    0.0000 C   0  0  0  0  0  0  0  0  0  0  0  0
    7.6279   -1.4330    0.0000 C   0  0  0  0  0  0  0  0  0  0  0  0
    5.5443    0.3603    0.0000 C   0  0  0  0  0  0  0  0  0  0  0  0
    5.5443    1.9698    0.0000 C   0  0  0  0  0  0  0  0  0  0  0  0
    4.5981    0.6651    0.0000 C   0  0  0  0  0  0  0  0  0  0  0  0
    4.5981    1.6651    0.0000 C   0  0  0  0  0  0  0  0  0  0  0  0
    9.1279   -2.2990    0.0000 C   0  0  0  0  0  0  0  0  0  0  0  0
    3.7320    0.1651    0.0000 C   0  0  0  0  0  0  0  0  0  0  0  0
    3.7320    2.1651    0.0000 C   0  0  0  0  0  0  0  0  0  0  0  0
   10.1279   -2.2990    0.0000 C   0  0  0  0  0  0  0  0  0  0  0  0
    2.8660    0.6651    0.0000 C   0  0  0  0  0  0  0  0  0  0  0  0
    2.8660    1.6651    0.0000 C   0  0  0  0  0  0  0  0  0  0  0  0
   10.6279   -1.4330    0.0000 C   0  0  0  0  0  0  0  0  0  0  0  0
   10.6279   -3.1651    0.0000 C   0  0  0  0  0  0  0  0  0  0  0  0
   11.6279   -1.4330    0.0000 C   0  0  0  0  0  0  0  0  0  0  0  0
   11.6279   -3.1651    0.0000 C   0  0  0  0  0  0  0  0  0  0  0  0
   12.1279   -2.2990    0.0000 C   0  0  0  0  0  0  0  0  0  0  0  0
    2.0000   -0.8349    0.0000 C   0  0  0  0  0  0  0  0  0  0  0  0
    2.0000    3.1651    0.0000 C   0  0  0  0  0  0  0  0  0  0  0  0
    7.9379    0.8360    0.0000 H   0  0  0  0  0  0  0  0  0  0  0  0
    7.7105    1.3771    0.0000 H   0  0  0  0  0  0  0  0  0  0  0  0
    7.0202    1.7756    0.0000 H   0  0  0  0  0  0  0  0  0  0  0  0
    6.4096    0.6128    0.0000 H   0  0  0  0  0  0  0  0  0  0  0  0
    6.6530   -0.1685    0.0000 H   0  0  0  0  0  0  0  0  0  0  0  0
    6.6530   -0.9655    0.0000 H   0  0  0  0  0  0  0  0  0  0  0  0
    9.2105    0.5111    0.0000 H   0  0  0  0  0  0  0  0  0  0  0  0
    8.5202    0.9096    0.0000 H   0  0  0  0  0  0  0  0  0  0  0  0
    7.0453   -1.6451    0.0000 H   0  0  0  0  0  0  0  0  0  0  0  0
    7.7356   -2.0436    0.0000 H   0  0  0  0  0  0  0  0  0  0  0  0
    9.6028   -0.9655    0.0000 H   0  0  0  0  0  0  0  0  0  0  0  0
    9.6028   -0.1685    0.0000 H   0  0  0  0  0  0  0  0  0  0  0  0
    5.2933   -0.2066    0.0000 H   0  0  0  0  0  0  0  0  0  0  0  0
    6.0817    0.0511    0.0000 H   0  0  0  0  0  0  0  0  0  0  0  0
    8.5453   -2.5111    0.0000 H   0  0  0  0  0  0  0  0  0  0  0  0
    9.2356   -2.9096    0.0000 H   0  0  0  0  0  0  0  0  0  0  0  0
    3.7320   -0.4549    0.0000 H   0  0  0  0  0  0  0  0  0  0  0  0
    3.7320    2.7851    0.0000 H   0  0  0  0  0  0  0  0  0  0  0  0
   10.3179   -0.8961    0.0000 H   0  0  0  0  0  0  0  0  0  0  0  0
   10.3179   -3.7020    0.0000 H   0  0  0  0  0  0  0  0  0  0  0  0
   11.9379   -0.8961    0.0000 H   0  0  0  0  0  0  0  0  0  0  0  0
   11.9379   -3.7020    0.0000 H   0  0  0  0  0  0  0  0  0  0  0  0
   12.7479   -2.2990    0.0000 H   0  0  0  0  0  0  0  0  0  0  0  0
    1.3800   -0.8349    0.0000 H   0  0  0  0  0  0  0  0  0  0  0  0
    2.0000   -1.4549    0.0000 H   0  0  0  0  0  0  0  0  0  0  0  0
    2.6200   -0.8349    0.0000 H   0  0  0  0  0  0  0  0  0  0  0  0
    2.6200    3.1651    0.0000 H   0  0  0  0  0  0  0  0  0  0  0  0
    2.0000    3.7851    0.0000 H   0  0  0  0  0  0  0  0  0  0  0  0
    1.3800    3.1651    0.0000 H   0  0  0  0  0  0  0  0  0  0  0  0
  1 13  2  0  0  0  0
  2 20  1  0  0  0  0
  2 27  1  0  0  0  0
  3 21  1  0  0  0  0
  3 28  1  0  0  0  0
  4 10  1  0  0  0  0
  4 11  1  0  0  0  0
  4 16  1  0  0  0  0
  5  6  1  0  0  0  0
  5  8  1  0  0  0  0
  5  9  1  0  0  0  0
  5 29  1  0  0  0  0
  6  7  1  0  0  0  0
  6 30  1  0  0  0  0
  6 31  1  0  0  0  0
  7 12  1  0  0  0  0
  7 13  1  0  0  0  0
  7 32  1  0  0  0  0
  8 10  1  0  0  0  0
  8 35  1  0  0  0  0
  8 36  1  0  0  0  0
  9 11  1  0  0  0  0
  9 33  1  0  0  0  0
  9 34  1  0  0  0  0
 10 39  1  0  0  0  0
 10 40  1  0  0  0  0
 11 37  1  0  0  0  0
 11 38  1  0  0  0  0
 12 14  1  0  0  0  0
 12 41  1  0  0  0  0
 12 42  1  0  0  0  0
 13 15  1  0  0  0  0
 14 15  1  0  0  0  0
 14 17  2  0  0  0  0
 15 18  2  0  0  0  0
 16 19  1  0  0  0  0
 16 43  1  0  0  0  0
 16 44  1  0  0  0  0
 17 20  1  0  0  0  0
 17 45  1  0  0  0  0
 18 21  1  0  0  0  0
 18 46  1  0  0  0  0
 19 22  2  0  0  0  0
 19 23  1  0  0  0  0
 20 21  2  0  0  0  0
 22 24  1  0  0  0  0
 22 47  1  0  0  0  0
 23 25  2  0  0  0  0
 23 48  1  0  0  0  0
 24 26  2  0  0  0  0
 24 49  1  0  0  0  0
 25 26  1  0  0  0  0
 25 50  1  0  0  0  0
 26 51  1  0  0  0  0
 27 52  1  0  0  0  0
 27 53  1  0  0  0  0
 27 54  1  0  0  0  0
 28 55  1  0  0  0  0
 28 56  1  0  0  0  0
 28 57  1  0  0  0  0
M  END
> <PUBCHEM_COMPOUND_CID>
3152

> <PUBCHEM_COMPOUND_CANONICALIZED>
1

> <PUBCHEM_CACTVS_COMPLEXITY>
510

> <PUBCHEM_CACTVS_HBOND_ACCEPTOR>
4

> <PUBCHEM_CACTVS_HBOND_DONOR>
0

> <PUBCHEM_CACTVS_ROTATABLE_BOND>
6

> <PUBCHEM_CACTVS_SUBSKEYS>
AAADceB6MAAAAAAAAAAAAAAAAAAAAYAAAAA8YIAAAAAAAGABQAAAHgAAAAAADQTBmAYyBoMABACIAqBSAACCCAAkIAAIiAEOjMgNJjKEtRuEMSpkwBGKqYeazPDOoAABAAAQQABAAAIAACCAAQAACAAAAA==

> <PUBCHEM_IUPAC_OPENEYE_NAME>
2-[(1-benzyl-4-piperidyl)methyl]-5,6-dimethoxy-indan-1-one

> <PUBCHEM_IUPAC_CAS_NAME>
5,6-dimethoxy-2-[[1-(phenylmethyl)-4-piperidinyl]methyl]-2,3-dihydroinden-1-one

> <PUBCHEM_IUPAC_NAME>
2-[(1-benzylpiperidin-4-yl)methyl]-5,6-dimethoxy-2,3-dihydroinden-1-one

> <PUBCHEM_IUPAC_SYSTEMATIC_NAME>
5,6-dimethoxy-2-[[1-(phenylmethyl)piperidin-4-yl]methyl]-2,3-dihydroinden-1-one

> <PUBCHEM_IUPAC_TRADITIONAL_NAME>
2-[(1-benzyl-4-piperidyl)methyl]-5,6-dimethoxy-indan-1-one

> <PUBCHEM_IUPAC_INCHI>
InChI=1S/C24H29NO3/c1-27-22-14-19-13-20(24(26)21(19)15-23(22)28-2)12-17-8-10-25(11-9-17)16-18-6-4-3-5-7-18/h3-7,14-15,17,20H,8-13,16H2,1-2H3

> <PUBCHEM_IUPAC_INCHIKEY>
ADEBPBSSDYVVLD-UHFFFAOYSA-N

> <PUBCHEM_XLOGP3_AA>
4.3

> <PUBCHEM_EXACT_MASS>
379.214744

> <PUBCHEM_MOLECULAR_FORMULA>
C24H29NO3

> <PUBCHEM_MOLECULAR_WEIGHT>
379.49196

> <PUBCHEM_OPENEYE_CAN_SMILES>
COC1=C(C=C2C(=C1)CC(C2=O)CC3CCN(CC3)CC4=CC=CC=C4)OC

> <PUBCHEM_OPENEYE_ISO_SMILES>
COC1=C(C=C2C(=C1)CC(C2=O)CC3CCN(CC3)CC4=CC=CC=C4)OC

> <PUBCHEM_CACTVS_TPSA>
38.8

> <PUBCHEM_MONOISOTOPIC_WEIGHT>
379.214744

> <PUBCHEM_TOTAL_CHARGE>
0

> <PUBCHEM_HEAVY_ATOM_COUNT>
28

> <PUBCHEM_ATOM_DEF_STEREO_COUNT>
0

> <PUBCHEM_ATOM_UDEF_STEREO_COUNT>
1

> <PUBCHEM_BOND_DEF_STEREO_COUNT>
0

> <PUBCHEM_BOND_UDEF_STEREO_COUNT>
0

> <PUBCHEM_ISOTOPIC_ATOM_COUNT>
0

> <PUBCHEM_COMPONENT_COUNT>
1

> <PUBCHEM_CACTVS_TAUTO_COUNT>
2

> <PUBCHEM_COORDINATE_TYPE>
1
5
255

> <PUBCHEM_BONDANNOTATIONS>
14  15  8
14  17  8
15  18  8
17  20  8
18  21  8
19  22  8
19  23  8
20  21  8
22  24  8
23  25  8
24  26  8
25  26  8
7  6  3

$$$$
