32800
  -OEChem-12171208172D

140143  0     1  0  0  0  0  0999 V2000
    8.3316    3.2079    0.0000 S   0  0  0  0  0  0  0  0  0  0  0  0
   12.6493   -0.3073    0.0000 S   0  0  0  0  0  0  0  0  0  0  0  0
   15.4138   -8.5752    0.0000 S   0  0  0  0  0  0  0  0  0  0  0  0
    7.3996    0.3564    0.0000 O   0  0  0  0  0  0  0  0  0  0  0  0
    4.4176    2.3831    0.0000 O   0  0  0  0  0  0  0  0  0  0  0  0
    8.0675   -0.3879    0.0000 O   0  0  0  0  0  0  0  0  0  0  0  0
   13.0065   -2.0022    0.0000 O   0  0  0  0  0  0  0  0  0  0  0  0
    9.7603   -3.5714    0.0000 O   0  0  0  0  0  0  0  0  0  0  0  0
    4.6817    5.9789    0.0000 O   0  0  0  0  0  0  0  0  0  0  0  0
   13.9850   -1.7960    0.0000 O   0  0  0  0  0  0  0  0  0  0  0  0
    2.4141    4.6160    0.0000 O   0  0  0  0  0  0  0  0  0  0  0  0
    3.7032    5.7727    0.0000 O   0  0  0  0  0  0  0  0  0  0  0  0
    7.9279    7.5481    0.0000 O   0  0  0  0  0  0  0  0  0  0  0  0
   15.7244   -7.6247    0.0000 O   0  0  0  0  0  0  0  0  0  0  0  0
   17.2312   -0.2268    0.0000 O   0  0  0  0  0  0  0  0  0  0  0  0
   17.5884   -1.9216    0.0000 O   0  0  0  0  0  0  0  0  0  0  0  0
   15.1031   -9.5258    0.0000 O   0  0  0  0  0  0  0  0  0  0  0  0
   16.3643   -8.8859    0.0000 O   0  0  0  0  0  0  0  0  0  0  0  0
   14.4632   -8.2646    0.0000 O   0  0  0  0  0  0  0  0  0  0  0  0
    5.7533    0.8945    0.0000 N   0  0  0  0  0  0  0  0  0  0  0  0
    6.7783   -1.5447    0.0000 N   0  0  0  0  0  0  0  0  0  0  0  0
    4.8213   -3.5666    0.0000 N   0  0  0  0  0  0  0  0  0  0  0  0
    5.7068    3.5398    0.0000 N   0  0  0  0  0  0  0  0  0  0  0  0
   11.7174   -3.1589    0.0000 N   0  0  0  0  0  0  0  0  0  0  0  0
    9.4032   -1.8765    0.0000 N   0  0  0  0  0  0  0  0  0  0  0  0
   14.3422   -3.4908    0.0000 N   0  0  0  0  0  0  0  0  0  0  0  0
    6.3281    5.4408    0.0000 N   0  0  0  0  0  0  0  0  0  0  0  0
   16.2992   -3.0783    0.0000 N   0  0  0  0  0  0  0  0  0  0  0  0
    8.2851    5.8533    0.0000 N   0  0  0  0  0  0  0  0  0  0  0  0
    6.1105   -0.8004    0.0000 C   0  0  3  0  0  0  0  0  0  0  0  0
    5.1320   -1.0066    0.0000 C   0  0  0  0  0  0  0  0  0  0  0  0
    6.0639    1.8450    0.0000 C   0  0  3  0  0  0  0  0  0  0  0  0
    4.8213   -1.9571    0.0000 C   0  0  0  0  0  0  0  0  0  0  0  0
    6.4211    0.1502    0.0000 C   0  0  0  0  0  0  0  0  0  0  0  0
    3.8751   -2.2618    0.0000 C   0  0  0  0  0  0  0  0  0  0  0  0
    7.0424    2.0512    0.0000 C   0  0  0  0  0  0  0  0  0  0  0  0
    3.8751   -3.2618    0.0000 C   0  0  0  0  0  0  0  0  0  0  0  0
    5.3961    2.5893    0.0000 C   0  0  0  0  0  0  0  0  0  0  0  0
    5.4049   -2.7618    0.0000 C   0  0  0  0  0  0  0  0  0  0  0  0
    5.0389    4.2841    0.0000 C   0  0  3  0  0  0  0  0  0  0  0  0
   11.0495   -2.4146    0.0000 C   0  0  3  0  0  0  0  0  0  0  0  0
   13.3637   -3.6970    0.0000 C   0  0  3  0  0  0  0  0  0  0  0  0
    7.3531    3.0017    0.0000 C   0  0  0  0  0  0  0  0  0  0  0  0
    7.7568   -1.3384    0.0000 C   0  0  0  0  0  0  0  0  0  0  0  0
   11.3602   -1.4641    0.0000 C   0  0  0  0  0  0  0  0  0  0  0  0
    3.0090   -1.7618    0.0000 C   0  0  0  0  0  0  0  0  0  0  0  0
   13.0530   -4.6475    0.0000 C   0  0  0  0  0  0  0  0  0  0  0  0
    8.4247   -2.0827    0.0000 C   0  0  0  0  0  0  0  0  0  0  0  0
   12.6959   -2.9527    0.0000 C   0  0  0  0  0  0  0  0  0  0  0  0
    4.0604    4.0779    0.0000 C   0  0  0  0  0  0  0  0  0  0  0  0
    3.0090   -3.7618    0.0000 C   0  0  0  0  0  0  0  0  0  0  0  0
   10.0710   -2.6208    0.0000 C   0  0  0  0  0  0  0  0  0  0  0  0
    5.3496    5.2346    0.0000 C   0  0  0  0  0  0  0  0  0  0  0  0
    6.6388    6.3914    0.0000 C   0  0  3  0  0  0  0  0  0  0  0  0
    2.1430   -2.2618    0.0000 C   0  0  0  0  0  0  0  0  0  0  0  0
   12.3387   -1.2579    0.0000 C   0  0  0  0  0  0  0  0  0  0  0  0
    2.1430   -3.2618    0.0000 C   0  0  0  0  0  0  0  0  0  0  0  0
   13.7209   -5.3918    0.0000 C   0  0  0  0  0  0  0  0  0  0  0  0
    5.9709    7.1357    0.0000 C   0  0  0  0  0  0  0  0  0  0  0  0
   14.6529   -2.5402    0.0000 C   0  0  0  0  0  0  0  0  0  0  0  0
   15.6314   -2.3340    0.0000 C   0  0  3  0  0  0  0  0  0  0  0  0
    3.3926    4.8222    0.0000 C   0  0  0  0  0  0  0  0  0  0  0  0
    6.2816    8.0862    0.0000 C   0  0  0  0  0  0  0  0  0  0  0  0
    7.6172    6.5976    0.0000 C   0  0  0  0  0  0  0  0  0  0  0  0
   13.4102   -6.3423    0.0000 C   0  0  0  0  0  0  0  0  0  0  0  0
   14.6994   -5.1856    0.0000 C   0  0  0  0  0  0  0  0  0  0  0  0
   15.9420   -1.3835    0.0000 C   0  0  0  0  0  0  0  0  0  0  0  0
    8.6423    4.1585    0.0000 C   0  0  0  0  0  0  0  0  0  0  0  0
   14.0781   -7.0866    0.0000 C   0  0  0  0  0  0  0  0  0  0  0  0
   15.3672   -5.9299    0.0000 C   0  0  0  0  0  0  0  0  0  0  0  0
   15.0566   -6.8804    0.0000 C   0  0  0  0  0  0  0  0  0  0  0  0
    7.2601    8.2924    0.0000 C   0  0  0  0  0  0  0  0  0  0  0  0
    5.6137    8.8305    0.0000 C   0  0  0  0  0  0  0  0  0  0  0  0
   13.6278   -0.1011    0.0000 C   0  0  0  0  0  0  0  0  0  0  0  0
   16.9205   -1.1773    0.0000 C   0  0  0  0  0  0  0  0  0  0  0  0
    7.5707    9.2429    0.0000 C   0  0  0  0  0  0  0  0  0  0  0  0
    5.9244    9.7810    0.0000 C   0  0  0  0  0  0  0  0  0  0  0  0
    6.9029    9.9872    0.0000 C   0  0  0  0  0  0  0  0  0  0  0  0
    5.9178   -1.3897    0.0000 H   0  0  0  0  0  0  0  0  0  0  0  0
    5.1114   -0.3869    0.0000 H   0  0  0  0  0  0  0  0  0  0  0  0
    4.5181   -0.9192    0.0000 H   0  0  0  0  0  0  0  0  0  0  0  0
    5.4573    1.7171    0.0000 H   0  0  0  0  0  0  0  0  0  0  0  0
    7.0630    1.4315    0.0000 H   0  0  0  0  0  0  0  0  0  0  0  0
    7.6563    1.9638    0.0000 H   0  0  0  0  0  0  0  0  0  0  0  0
    5.1466    0.7666    0.0000 H   0  0  0  0  0  0  0  0  0  0  0  0
    6.5857   -2.1340    0.0000 H   0  0  0  0  0  0  0  0  0  0  0  0
    6.0249   -2.7618    0.0000 H   0  0  0  0  0  0  0  0  0  0  0  0
    4.8463    3.6948    0.0000 H   0  0  0  0  0  0  0  0  0  0  0  0
   10.8569   -3.0039    0.0000 H   0  0  0  0  0  0  0  0  0  0  0  0
    5.0139   -4.1559    0.0000 H   0  0  0  0  0  0  0  0  0  0  0  0
   13.7778   -4.1585    0.0000 H   0  0  0  0  0  0  0  0  0  0  0  0
    6.3134    3.6677    0.0000 H   0  0  0  0  0  0  0  0  0  0  0  0
    7.3326    3.6214    0.0000 H   0  0  0  0  0  0  0  0  0  0  0  0
    6.7393    3.0891    0.0000 H   0  0  0  0  0  0  0  0  0  0  0  0
   11.3396   -0.8444    0.0000 H   0  0  0  0  0  0  0  0  0  0  0  0
   10.7464   -1.3767    0.0000 H   0  0  0  0  0  0  0  0  0  0  0  0
    3.0090   -1.1418    0.0000 H   0  0  0  0  0  0  0  0  0  0  0  0
   12.5061   -4.3555    0.0000 H   0  0  0  0  0  0  0  0  0  0  0  0
   12.6705   -5.1354    0.0000 H   0  0  0  0  0  0  0  0  0  0  0  0
    7.8983   -2.4104    0.0000 H   0  0  0  0  0  0  0  0  0  0  0  0
    8.6559   -2.6580    0.0000 H   0  0  0  0  0  0  0  0  0  0  0  0
   11.5247   -3.7482    0.0000 H   0  0  0  0  0  0  0  0  0  0  0  0
    3.5340    3.7502    0.0000 H   0  0  0  0  0  0  0  0  0  0  0  0
    4.2917    3.5026    0.0000 H   0  0  0  0  0  0  0  0  0  0  0  0
    3.0090   -4.3818    0.0000 H   0  0  0  0  0  0  0  0  0  0  0  0
    7.0528    5.9299    0.0000 H   0  0  0  0  0  0  0  0  0  0  0  0
    9.5958   -1.2872    0.0000 H   0  0  0  0  0  0  0  0  0  0  0  0
   14.7563   -3.9522    0.0000 H   0  0  0  0  0  0  0  0  0  0  0  0
    1.6061   -1.9518    0.0000 H   0  0  0  0  0  0  0  0  0  0  0  0
    6.7422    4.9794    0.0000 H   0  0  0  0  0  0  0  0  0  0  0  0
   12.3592   -1.8775    0.0000 H   0  0  0  0  0  0  0  0  0  0  0  0
   12.9525   -1.3452    0.0000 H   0  0  0  0  0  0  0  0  0  0  0  0
    1.6061   -3.5718    0.0000 H   0  0  0  0  0  0  0  0  0  0  0  0
    5.4240    7.4277    0.0000 H   0  0  0  0  0  0  0  0  0  0  0  0
    5.5884    6.6478    0.0000 H   0  0  0  0  0  0  0  0  0  0  0  0
   16.2381   -2.2062    0.0000 H   0  0  0  0  0  0  0  0  0  0  0  0
   12.8035   -6.4702    0.0000 H   0  0  0  0  0  0  0  0  0  0  0  0
   14.8920   -4.5963    0.0000 H   0  0  0  0  0  0  0  0  0  0  0  0
   15.9215   -0.7639    0.0000 H   0  0  0  0  0  0  0  0  0  0  0  0
   15.3282   -1.2962    0.0000 H   0  0  0  0  0  0  0  0  0  0  0  0
    9.2316    3.9658    0.0000 H   0  0  0  0  0  0  0  0  0  0  0  0
    8.8349    4.7478    0.0000 H   0  0  0  0  0  0  0  0  0  0  0  0
    8.0530    4.3511    0.0000 H   0  0  0  0  0  0  0  0  0  0  0  0
   13.8855   -7.6760    0.0000 H   0  0  0  0  0  0  0  0  0  0  0  0
   15.9739   -5.8020    0.0000 H   0  0  0  0  0  0  0  0  0  0  0  0
    7.6741    7.8309    0.0000 H   0  0  0  0  0  0  0  0  0  0  0  0
    5.0070    8.7026    0.0000 H   0  0  0  0  0  0  0  0  0  0  0  0
   16.9059   -2.9505    0.0000 H   0  0  0  0  0  0  0  0  0  0  0  0
   16.1066   -3.6677    0.0000 H   0  0  0  0  0  0  0  0  0  0  0  0
    8.8918    5.9811    0.0000 H   0  0  0  0  0  0  0  0  0  0  0  0
    8.0925    5.2640    0.0000 H   0  0  0  0  0  0  0  0  0  0  0  0
   13.7557   -0.7078    0.0000 H   0  0  0  0  0  0  0  0  0  0  0  0
   14.2345    0.0267    0.0000 H   0  0  0  0  0  0  0  0  0  0  0  0
   13.5000    0.5055    0.0000 H   0  0  0  0  0  0  0  0  0  0  0  0
    8.1774    9.3708    0.0000 H   0  0  0  0  0  0  0  0  0  0  0  0
    5.5103   10.2425    0.0000 H   0  0  0  0  0  0  0  0  0  0  0  0
    2.0000    5.0774    0.0000 H   0  0  0  0  0  0  0  0  0  0  0  0
    7.0955   10.5766    0.0000 H   0  0  0  0  0  0  0  0  0  0  0  0
   17.8379   -0.0989    0.0000 H   0  0  0  0  0  0  0  0  0  0  0  0
   15.5172   -9.9872    0.0000 H   0  0  0  0  0  0  0  0  0  0  0  0
  1 43  1  0  0  0  0
  1 68  1  0  0  0  0
  2 56  1  0  0  0  0
  2 74  1  0  0  0  0
  3 14  1  0  0  0  0
  3 17  1  0  0  0  0
  3 18  2  0  0  0  0
  3 19  2  0  0  0  0
  4 34  2  0  0  0  0
  5 38  2  0  0  0  0
  6 44  2  0  0  0  0
  7 49  2  0  0  0  0
  8 52  2  0  0  0  0
  9 53  2  0  0  0  0
 10 60  2  0  0  0  0
 11 62  1  0  0  0  0
 11137  1  0  0  0  0
 12 62  2  0  0  0  0
 13 64  2  0  0  0  0
 14 71  1  0  0  0  0
 15 75  1  0  0  0  0
 15139  1  0  0  0  0
 16 75  2  0  0  0  0
 17140  1  0  0  0  0
 20 32  1  0  0  0  0
 20 34  1  0  0  0  0
 20 85  1  0  0  0  0
 21 30  1  0  0  0  0
 21 44  1  0  0  0  0
 21 86  1  0  0  0  0
 22 37  1  0  0  0  0
 22 39  1  0  0  0  0
 22 90  1  0  0  0  0
 23 38  1  0  0  0  0
 23 40  1  0  0  0  0
 23 92  1  0  0  0  0
 24 41  1  0  0  0  0
 24 49  1  0  0  0  0
 24102  1  0  0  0  0
 25 48  1  0  0  0  0
 25 52  1  0  0  0  0
 25107  1  0  0  0  0
 26 42  1  0  0  0  0
 26 60  1  0  0  0  0
 26108  1  0  0  0  0
 27 53  1  0  0  0  0
 27 54  1  0  0  0  0
 27110  1  0  0  0  0
 28 61  1  0  0  0  0
 28128  1  0  0  0  0
 28129  1  0  0  0  0
 29 64  1  0  0  0  0
 29130  1  0  0  0  0
 29131  1  0  0  0  0
 30 31  1  0  0  0  0
 30 34  1  0  0  0  0
 30 79  1  0  0  0  0
 31 33  1  0  0  0  0
 31 80  1  0  0  0  0
 31 81  1  0  0  0  0
 32 36  1  0  0  0  0
 32 38  1  0  0  0  0
 32 82  1  0  0  0  0
 33 35  1  0  0  0  0
 33 39  2  0  0  0  0
 35 37  1  0  0  0  0
 35 46  2  0  0  0  0
 36 43  1  0  0  0  0
 36 83  1  0  0  0  0
 36 84  1  0  0  0  0
 37 51  2  0  0  0  0
 39 87  1  0  0  0  0
 40 50  1  0  0  0  0
 40 53  1  0  0  0  0
 40 88  1  0  0  0  0
 41 45  1  0  0  0  0
 41 52  1  0  0  0  0
 41 89  1  0  0  0  0
 42 47  1  0  0  0  0
 42 49  1  0  0  0  0
 42 91  1  0  0  0  0
 43 93  1  0  0  0  0
 43 94  1  0  0  0  0
 44 48  1  0  0  0  0
 45 56  1  0  0  0  0
 45 95  1  0  0  0  0
 45 96  1  0  0  0  0
 46 55  1  0  0  0  0
 46 97  1  0  0  0  0
 47 58  1  0  0  0  0
 47 98  1  0  0  0  0
 47 99  1  0  0  0  0
 48100  1  0  0  0  0
 48101  1  0  0  0  0
 50 62  1  0  0  0  0
 50103  1  0  0  0  0
 50104  1  0  0  0  0
 51 57  1  0  0  0  0
 51105  1  0  0  0  0
 54 59  1  0  0  0  0
 54 64  1  0  0  0  0
 54106  1  0  0  0  0
 55 57  2  0  0  0  0
 55109  1  0  0  0  0
 56111  1  0  0  0  0
 56112  1  0  0  0  0
 57113  1  0  0  0  0
 58 65  2  0  0  0  0
 58 66  1  0  0  0  0
 59 63  1  0  0  0  0
 59114  1  0  0  0  0
 59115  1  0  0  0  0
 60 61  1  0  0  0  0
 61 67  1  0  0  0  0
 61116  1  0  0  0  0
 63 72  2  0  0  0  0
 63 73  1  0  0  0  0
 65 69  1  0  0  0  0
 65117  1  0  0  0  0
 66 70  2  0  0  0  0
 66118  1  0  0  0  0
 67 75  1  0  0  0  0
 67119  1  0  0  0  0
 67120  1  0  0  0  0
 68121  1  0  0  0  0
 68122  1  0  0  0  0
 68123  1  0  0  0  0
 69 71  2  0  0  0  0
 69124  1  0  0  0  0
 70 71  1  0  0  0  0
 70125  1  0  0  0  0
 72 76  1  0  0  0  0
 72126  1  0  0  0  0
 73 77  2  0  0  0  0
 73127  1  0  0  0  0
 74132  1  0  0  0  0
 74133  1  0  0  0  0
 74134  1  0  0  0  0
 76 78  2  0  0  0  0
 76135  1  0  0  0  0
 77 78  1  0  0  0  0
 77136  1  0  0  0  0
 78138  1  0  0  0  0
M  END
> <PUBCHEM_COMPOUND_CID>
32800

> <PUBCHEM_COMPOUND_CANONICALIZED>
1

> <PUBCHEM_CACTVS_COMPLEXITY>
2180

> <PUBCHEM_CACTVS_HBOND_ACCEPTOR>
19

> <PUBCHEM_CACTVS_HBOND_DONOR>
13

> <PUBCHEM_CACTVS_ROTATABLE_BOND>
33

> <PUBCHEM_CACTVS_SUBSKEYS>
AAADcfB//gBgAAAAAAAAAAAAAAAAAWAAAAAwYMAAAAAAAFgB9AAAHgQQCAAADCzF3gS+zvLJkoioAzX3XDCCgCAxIjAI2aG+bJgIZvrgkbOUcAhm1hHIyAe/yeCOoAAAAAACAABAAAAAAAQAAAAAAAAAAA==

> <PUBCHEM_IUPAC_OPENEYE_NAME>
3-amino-4-[[2-[[1-[[2-[[2-[[1-[[2-[(2-amino-1-benzyl-2-oxo-ethyl)amino]-1-(carboxymethyl)-2-oxo-ethyl]carbamoyl]-3-methylsulfanyl-propyl]amino]-1-(1H-indol-3-ylmethyl)-2-oxo-ethyl]amino]-2-oxo-ethyl]carbamoyl]-3-methylsulfanyl-propyl]amino]-2-oxo-1-[(4-sulfooxyphenyl)methyl]ethyl]amino]-4-oxo-butanoic acid

> <PUBCHEM_IUPAC_CAS_NAME>
3-amino-4-[[1-[[1-[[2-[[1-[[1-[[1-[(1-amino-1-oxo-3-phenylpropan-2-yl)amino]-3-carboxy-1-oxopropan-2-yl]amino]-4-(methylthio)-1-oxobutan-2-yl]amino]-3-(1H-indol-3-yl)-1-oxopropan-2-yl]amino]-2-oxoethyl]amino]-4-(methylthio)-1-oxobutan-2-yl]amino]-1-oxo-3-(4-sulfooxyphenyl)propan-2-yl]amino]-4-oxobutanoic acid

> <PUBCHEM_IUPAC_NAME>
3-amino-4-[[1-[[1-[[2-[[1-[[1-[[1-[(1-amino-1-oxo-3-phenylpropan-2-yl)amino]-3-carboxy-1-oxopropan-2-yl]amino]-4-methylsulfanyl-1-oxobutan-2-yl]amino]-3-(1H-indol-3-yl)-1-oxopropan-2-yl]amino]-2-oxoethyl]amino]-4-methylsulfanyl-1-oxobutan-2-yl]amino]-1-oxo-3-(4-sulfooxyphenyl)propan-2-yl]amino]-4-oxobutanoic acid

> <PUBCHEM_IUPAC_SYSTEMATIC_NAME>
3-azanyl-4-[[1-[[1-[[2-[[1-[[1-[[1-[(1-azanyl-1-oxidanylidene-3-phenyl-propan-2-yl)amino]-4-oxidanyl-1,4-bis(oxidanylidene)butan-2-yl]amino]-4-methylsulfanyl-1-oxidanylidene-butan-2-yl]amino]-3-(1H-indol-3-yl)-1-oxidanylidene-propan-2-yl]amino]-2-oxidanylidene-ethyl]amino]-4-methylsulfanyl-1-oxidanylidene-butan-2-yl]amino]-1-oxidanylidene-3-(4-sulfooxyphenyl)propan-2-yl]amino]-4-oxidanylidene-butanoic acid

> <PUBCHEM_IUPAC_TRADITIONAL_NAME>
3-amino-4-[[2-[[1-[[2-[[2-[[1-[[2-[(2-amino-1-benzyl-2-keto-ethyl)amino]-1-(carboxymethyl)-2-keto-ethyl]carbamoyl]-3-(methylthio)propyl]amino]-1-(1H-indol-3-ylmethyl)-2-keto-ethyl]amino]-2-keto-ethyl]carbamoyl]-3-(methylthio)propyl]amino]-2-keto-1-(4-sulfoxybenzyl)ethyl]amino]-4-keto-butyric acid

> <PUBCHEM_IUPAC_INCHI>
InChI=1S/C49H62N10O16S3/c1-76-18-16-34(55-47(69)37(58-44(66)32(50)23-41(61)62)21-28-12-14-30(15-13-28)75-78(72,73)74)45(67)53-26-40(60)54-38(22-29-25-52-33-11-7-6-10-31(29)33)48(70)56-35(17-19-77-2)46(68)59-39(24-42(63)64)49(71)57-36(43(51)65)20-27-8-4-3-5-9-27/h3-15,25,32,34-39,52H,16-24,26,50H2,1-2H3,(H2,51,65)(H,53,67)(H,54,60)(H,55,69)(H,56,70)(H,57,71)(H,58,66)(H,59,68)(H,61,62)(H,63,64)(H,72,73,74)

> <PUBCHEM_IUPAC_INCHIKEY>
IZTQOLKUZKXIRV-UHFFFAOYSA-N

> <PUBCHEM_XLOGP3>
-2.6

> <PUBCHEM_EXACT_MASS>
1142.350739

> <PUBCHEM_MOLECULAR_FORMULA>
C49H62N10O16S3

> <PUBCHEM_MOLECULAR_WEIGHT>
1143.26898

> <PUBCHEM_OPENEYE_CAN_SMILES>
CSCCC(C(=O)NCC(=O)NC(CC1=CNC2=CC=CC=C21)C(=O)NC(CCSC)C(=O)NC(CC(=O)O)C(=O)NC(CC3=CC=CC=C3)C(=O)N)NC(=O)C(CC4=CC=C(C=C4)OS(=O)(=O)O)NC(=O)C(CC(=O)O)N

> <PUBCHEM_OPENEYE_ISO_SMILES>
CSCCC(C(=O)NCC(=O)NC(CC1=CNC2=CC=CC=C21)C(=O)NC(CCSC)C(=O)NC(CC(=O)O)C(=O)NC(CC3=CC=CC=C3)C(=O)N)NC(=O)C(CC4=CC=C(C=C4)OS(=O)(=O)O)NC(=O)C(CC(=O)O)N

> <PUBCHEM_CACTVS_TPSA>
486

> <PUBCHEM_MONOISOTOPIC_WEIGHT>
1142.350739

> <PUBCHEM_TOTAL_CHARGE>
0

> <PUBCHEM_HEAVY_ATOM_COUNT>
78

> <PUBCHEM_ATOM_DEF_STEREO_COUNT>
0

> <PUBCHEM_ATOM_UDEF_STEREO_COUNT>
7

> <PUBCHEM_BOND_DEF_STEREO_COUNT>
0

> <PUBCHEM_BOND_UDEF_STEREO_COUNT>
0

> <PUBCHEM_ISOTOPIC_ATOM_COUNT>
0

> <PUBCHEM_COMPONENT_COUNT>
1

> <PUBCHEM_CACTVS_TAUTO_COUNT>
384

> <PUBCHEM_COORDINATE_TYPE>
1
5
255

> <PUBCHEM_BONDANNOTATIONS>
22  37  8
22  39  8
61  28  3
30  31  3
32  36  3
33  35  8
33  39  8
35  37  8
35  46  8
37  51  8
40  50  3
41  45  3
42  47  3
46  55  8
51  57  8
54  59  3
55  57  8
58  65  8
58  66  8
63  72  8
63  73  8
65  69  8
66  70  8
69  71  8
70  71  8
72  76  8
73  77  8
76  78  8
77  78  8

$$$$
