365716
  -OEChem-12171208242D

148152  0     1  0  0  0  0  0999 V2000
    9.1949   -5.7500    0.0000 S   0  0  0  0  0  0  0  0  0  0  0  0
   10.0610    2.7500    0.0000 S   0  0  0  0  0  0  0  0  0  0  0  0
    9.1949    0.2500    0.0000 O   0  0  0  0  0  0  0  0  0  0  0  0
    5.7308    1.2500    0.0000 O   0  0  0  0  0  0  0  0  0  0  0  0
    8.3289   -3.2500    0.0000 O   0  0  0  0  0  0  0  0  0  0  0  0
    6.5968    4.7500    0.0000 O   0  0  0  0  0  0  0  0  0  0  0  0
   11.7930   -4.2500    0.0000 O   0  0  0  0  0  0  0  0  0  0  0  0
   10.0610    5.7500    0.0000 O   0  0  0  0  0  0  0  0  0  0  0  0
   13.5251   -6.2500    0.0000 O   0  0  0  0  0  0  0  0  0  0  0  0
   12.6590    3.2500    0.0000 O   0  0  0  0  0  0  0  0  0  0  0  0
    4.8648    7.7500    0.0000 O   0  0  0  0  0  0  0  0  0  0  0  0
   10.9270   -7.7500    0.0000 O   0  0  0  0  0  0  0  0  0  0  0  0
    7.4629    1.2500    0.0000 N   0  0  0  0  0  0  0  0  0  0  0  0
    8.3289   -1.2500    0.0000 N   0  0  0  0  0  0  0  0  0  0  0  0
    7.4629    3.2500    0.0000 N   0  0  0  0  0  0  0  0  0  0  0  0
   10.0610   -3.2500    0.0000 N   0  0  0  0  0  0  0  0  0  0  0  0
    3.7899    1.5521    0.0000 N   0  0  0  0  0  0  0  0  0  0  0  0
    9.1949    4.2500    0.0000 N   0  0  0  0  0  0  0  0  0  0  0  0
    4.8648   -3.2500    0.0000 N   0  0  0  0  0  0  0  0  0  0  0  0
   10.9270   -5.7500    0.0000 N   0  0  0  0  0  0  0  0  0  0  0  0
   11.7930    4.7500    0.0000 N   0  0  0  0  0  0  0  0  0  0  0  0
   13.5251    5.7500    0.0000 N   0  0  0  0  0  0  0  0  0  0  0  0
   12.6590   -7.7500    0.0000 N   0  0  0  0  0  0  0  0  0  0  0  0
    7.4629    0.2500    0.0000 C   0  0  3  0  0  0  0  0  0  0  0  0
    6.5968   -0.2500    0.0000 C   0  0  0  0  0  0  0  0  0  0  0  0
    9.1949   -1.7500    0.0000 C   0  0  3  0  0  0  0  0  0  0  0  0
    6.5968    2.7500    0.0000 C   0  0  3  0  0  0  0  0  0  0  0  0
   10.0610   -1.2500    0.0000 C   0  0  0  0  0  0  0  0  0  0  0  0
    6.5968   -1.2500    0.0000 C   0  0  0  0  0  0  0  0  0  0  0  0
    5.7308    3.2500    0.0000 C   0  0  0  0  0  0  0  0  0  0  0  0
    8.3289   -0.2500    0.0000 C   0  0  0  0  0  0  0  0  0  0  0  0
    6.5968    1.7500    0.0000 C   0  0  0  0  0  0  0  0  0  0  0  0
    4.8648    2.7500    0.0000 C   0  0  0  0  0  0  0  0  0  0  0  0
    5.7308   -1.7500    0.0000 C   0  0  0  0  0  0  0  0  0  0  0  0
    9.1949   -2.7500    0.0000 C   0  0  0  0  0  0  0  0  0  0  0  0
   10.9270   -1.7500    0.0000 C   0  0  0  0  0  0  0  0  0  0  0  0
   10.0610   -0.2500    0.0000 C   0  0  0  0  0  0  0  0  0  0  0  0
    8.3289    4.7500    0.0000 C   0  0  3  0  0  0  0  0  0  0  0  0
    3.9570    3.1551    0.0000 C   0  0  0  0  0  0  0  0  0  0  0  0
    7.4629    4.2500    0.0000 C   0  0  0  0  0  0  0  0  0  0  0  0
    4.7617    1.7613    0.0000 C   0  0  0  0  0  0  0  0  0  0  0  0
    5.7308   -2.7500    0.0000 C   0  0  0  0  0  0  0  0  0  0  0  0
    3.2892    2.4108    0.0000 C   0  0  0  0  0  0  0  0  0  0  0  0
    8.3289    5.7500    0.0000 C   0  0  0  0  0  0  0  0  0  0  0  0
   10.0610   -4.2500    0.0000 C   0  0  3  0  0  0  0  0  0  0  0  0
    3.6464    4.1056    0.0000 C   0  0  0  0  0  0  0  0  0  0  0  0
    7.4629    6.2500    0.0000 C   0  0  0  0  0  0  0  0  0  0  0  0
    2.3107    2.6170    0.0000 C   0  0  0  0  0  0  0  0  0  0  0  0
    9.1949   -4.7500    0.0000 C   0  0  0  0  0  0  0  0  0  0  0  0
   10.9270   -4.7500    0.0000 C   0  0  0  0  0  0  0  0  0  0  0  0
   10.9270    4.2500    0.0000 C   0  0  3  0  0  0  0  0  0  0  0  0
   10.0610    4.7500    0.0000 C   0  0  0  0  0  0  0  0  0  0  0  0
    2.6678    4.3118    0.0000 C   0  0  0  0  0  0  0  0  0  0  0  0
    2.0000    3.5676    0.0000 C   0  0  0  0  0  0  0  0  0  0  0  0
   11.7930   -6.2500    0.0000 C   0  0  3  0  0  0  0  0  0  0  0  0
    7.4629    7.2500    0.0000 C   0  0  0  0  0  0  0  0  0  0  0  0
    6.5968    5.7500    0.0000 C   0  0  0  0  0  0  0  0  0  0  0  0
   10.9270    3.2500    0.0000 C   0  0  0  0  0  0  0  0  0  0  0  0
   12.6590   -5.7500    0.0000 C   0  0  3  0  0  0  0  0  0  0  0  0
   13.5251    4.7500    0.0000 C   0  0  3  0  0  0  0  0  0  0  0  0
   12.6590    4.2500    0.0000 C   0  0  0  0  0  0  0  0  0  0  0  0
   14.3911    4.2500    0.0000 C   0  0  0  0  0  0  0  0  0  0  0  0
    6.5968    7.7500    0.0000 C   0  0  0  0  0  0  0  0  0  0  0  0
    5.7308    6.2500    0.0000 C   0  0  0  0  0  0  0  0  0  0  0  0
   11.7930   -7.2500    0.0000 C   0  0  0  0  0  0  0  0  0  0  0  0
   15.2571    4.7500    0.0000 C   0  0  0  0  0  0  0  0  0  0  0  0
    5.7308    7.2500    0.0000 C   0  0  0  0  0  0  0  0  0  0  0  0
   12.6590   -4.7500    0.0000 C   0  0  0  0  0  0  0  0  0  0  0  0
   16.1231    4.2500    0.0000 C   0  0  0  0  0  0  0  0  0  0  0  0
   15.2571    5.7500    0.0000 C   0  0  0  0  0  0  0  0  0  0  0  0
   16.9892    4.7500    0.0000 C   0  0  0  0  0  0  0  0  0  0  0  0
   16.9892    5.7500    0.0000 C   0  0  0  0  0  0  0  0  0  0  0  0
   16.1231    6.2500    0.0000 C   0  0  0  0  0  0  0  0  0  0  0  0
   17.8831    4.2153    0.0000 C   0  0  0  0  0  0  0  0  0  0  0  0
   17.8831    6.2847    0.0000 C   0  0  0  0  0  0  0  0  0  0  0  0
   18.7892    4.7292    0.0000 C   0  0  0  0  0  0  0  0  0  0  0  0
   18.7892    5.7708    0.0000 C   0  0  0  0  0  0  0  0  0  0  0  0
    6.9259    0.5600    0.0000 H   0  0  0  0  0  0  0  0  0  0  0  0
    6.3848    0.3326    0.0000 H   0  0  0  0  0  0  0  0  0  0  0  0
    5.9863   -0.3577    0.0000 H   0  0  0  0  0  0  0  0  0  0  0  0
    8.6580   -2.0600    0.0000 H   0  0  0  0  0  0  0  0  0  0  0  0
    6.5968    3.3700    0.0000 H   0  0  0  0  0  0  0  0  0  0  0  0
    9.5240   -0.9400    0.0000 H   0  0  0  0  0  0  0  0  0  0  0  0
    6.8089   -1.8326    0.0000 H   0  0  0  0  0  0  0  0  0  0  0  0
    7.2074   -1.1423    0.0000 H   0  0  0  0  0  0  0  0  0  0  0  0
    6.1293    3.7250    0.0000 H   0  0  0  0  0  0  0  0  0  0  0  0
    5.3323    3.7250    0.0000 H   0  0  0  0  0  0  0  0  0  0  0  0
    7.9998    1.5600    0.0000 H   0  0  0  0  0  0  0  0  0  0  0  0
    7.7920   -1.5600    0.0000 H   0  0  0  0  0  0  0  0  0  0  0  0
    5.5188   -1.1674    0.0000 H   0  0  0  0  0  0  0  0  0  0  0  0
    5.1202   -1.8577    0.0000 H   0  0  0  0  0  0  0  0  0  0  0  0
    7.9998    2.9400    0.0000 H   0  0  0  0  0  0  0  0  0  0  0  0
   10.6810   -0.2500    0.0000 H   0  0  0  0  0  0  0  0  0  0  0  0
   10.0610    0.3700    0.0000 H   0  0  0  0  0  0  0  0  0  0  0  0
    9.4410   -0.2500    0.0000 H   0  0  0  0  0  0  0  0  0  0  0  0
   10.6170   -2.2869    0.0000 H   0  0  0  0  0  0  0  0  0  0  0  0
   11.4639   -2.0600    0.0000 H   0  0  0  0  0  0  0  0  0  0  0  0
   11.2370   -1.2131    0.0000 H   0  0  0  0  0  0  0  0  0  0  0  0
    8.8658    5.0600    0.0000 H   0  0  0  0  0  0  0  0  0  0  0  0
    5.2232    1.3472    0.0000 H   0  0  0  0  0  0  0  0  0  0  0  0
    5.9429   -3.3326    0.0000 H   0  0  0  0  0  0  0  0  0  0  0  0
    6.3414   -2.6423    0.0000 H   0  0  0  0  0  0  0  0  0  0  0  0
   10.5979   -2.9400    0.0000 H   0  0  0  0  0  0  0  0  0  0  0  0
    8.9395    5.6423    0.0000 H   0  0  0  0  0  0  0  0  0  0  0  0
    8.5410    6.3326    0.0000 H   0  0  0  0  0  0  0  0  0  0  0  0
    9.5240   -3.9400    0.0000 H   0  0  0  0  0  0  0  0  0  0  0  0
    3.5397    0.9848    0.0000 H   0  0  0  0  0  0  0  0  0  0  0  0
    9.1949    3.6300    0.0000 H   0  0  0  0  0  0  0  0  0  0  0  0
    4.0604    4.5671    0.0000 H   0  0  0  0  0  0  0  0  0  0  0  0
    1.8966    2.1556    0.0000 H   0  0  0  0  0  0  0  0  0  0  0  0
    8.9829   -4.1674    0.0000 H   0  0  0  0  0  0  0  0  0  0  0  0
    8.5843   -4.8577    0.0000 H   0  0  0  0  0  0  0  0  0  0  0  0
   11.4639    3.9400    0.0000 H   0  0  0  0  0  0  0  0  0  0  0  0
    2.4752    4.9012    0.0000 H   0  0  0  0  0  0  0  0  0  0  0  0
    4.8648   -3.8700    0.0000 H   0  0  0  0  0  0  0  0  0  0  0  0
    4.3279   -2.9400    0.0000 H   0  0  0  0  0  0  0  0  0  0  0  0
    1.3933    3.6954    0.0000 H   0  0  0  0  0  0  0  0  0  0  0  0
   11.2561   -6.5600    0.0000 H   0  0  0  0  0  0  0  0  0  0  0  0
   10.3900   -6.0600    0.0000 H   0  0  0  0  0  0  0  0  0  0  0  0
   11.7930    5.3700    0.0000 H   0  0  0  0  0  0  0  0  0  0  0  0
    7.9998    7.5600    0.0000 H   0  0  0  0  0  0  0  0  0  0  0  0
    6.5968    5.1300    0.0000 H   0  0  0  0  0  0  0  0  0  0  0  0
   11.1390    2.6674    0.0000 H   0  0  0  0  0  0  0  0  0  0  0  0
   11.5376    3.3577    0.0000 H   0  0  0  0  0  0  0  0  0  0  0  0
   13.1960   -5.4400    0.0000 H   0  0  0  0  0  0  0  0  0  0  0  0
   12.9881    5.0600    0.0000 H   0  0  0  0  0  0  0  0  0  0  0  0
   13.9925    3.7750    0.0000 H   0  0  0  0  0  0  0  0  0  0  0  0
   14.7896    3.7750    0.0000 H   0  0  0  0  0  0  0  0  0  0  0  0
    6.5968    8.3700    0.0000 H   0  0  0  0  0  0  0  0  0  0  0  0
    5.1939    5.9400    0.0000 H   0  0  0  0  0  0  0  0  0  0  0  0
    8.6580   -6.0600    0.0000 H   0  0  0  0  0  0  0  0  0  0  0  0
   13.2790   -4.7500    0.0000 H   0  0  0  0  0  0  0  0  0  0  0  0
   12.6590   -4.1300    0.0000 H   0  0  0  0  0  0  0  0  0  0  0  0
   12.0390   -4.7500    0.0000 H   0  0  0  0  0  0  0  0  0  0  0  0
   12.9881    6.0600    0.0000 H   0  0  0  0  0  0  0  0  0  0  0  0
   14.0620    6.0600    0.0000 H   0  0  0  0  0  0  0  0  0  0  0  0
   16.1231    3.6300    0.0000 H   0  0  0  0  0  0  0  0  0  0  0  0
   10.0610    2.1300    0.0000 H   0  0  0  0  0  0  0  0  0  0  0  0
   14.7202    6.0600    0.0000 H   0  0  0  0  0  0  0  0  0  0  0  0
   14.0620   -5.9400    0.0000 H   0  0  0  0  0  0  0  0  0  0  0  0
   16.1231    6.8700    0.0000 H   0  0  0  0  0  0  0  0  0  0  0  0
   12.6590   -8.3700    0.0000 H   0  0  0  0  0  0  0  0  0  0  0  0
   13.1960   -7.4400    0.0000 H   0  0  0  0  0  0  0  0  0  0  0  0
   17.8759    3.5954    0.0000 H   0  0  0  0  0  0  0  0  0  0  0  0
    4.8648    8.3700    0.0000 H   0  0  0  0  0  0  0  0  0  0  0  0
   17.8759    6.9046    0.0000 H   0  0  0  0  0  0  0  0  0  0  0  0
   19.3249    4.4171    0.0000 H   0  0  0  0  0  0  0  0  0  0  0  0
   19.3249    6.0829    0.0000 H   0  0  0  0  0  0  0  0  0  0  0  0
  1 49  1  0  0  0  0
  1131  1  0  0  0  0
  2 58  1  0  0  0  0
  2138  1  0  0  0  0
  3 31  2  0  0  0  0
  4 32  2  0  0  0  0
  5 35  2  0  0  0  0
  6 40  2  0  0  0  0
  7 50  2  0  0  0  0
  8 52  2  0  0  0  0
  9 59  1  0  0  0  0
  9140  1  0  0  0  0
 10 61  2  0  0  0  0
 11 67  1  0  0  0  0
 11145  1  0  0  0  0
 12 65  2  0  0  0  0
 13 24  1  0  0  0  0
 13 32  1  0  0  0  0
 13 88  1  0  0  0  0
 14 26  1  0  0  0  0
 14 31  1  0  0  0  0
 14 89  1  0  0  0  0
 15 27  1  0  0  0  0
 15 40  1  0  0  0  0
 15 92  1  0  0  0  0
 16 35  1  0  0  0  0
 16 45  1  0  0  0  0
 16103  1  0  0  0  0
 17 41  1  0  0  0  0
 17 43  1  0  0  0  0
 17107  1  0  0  0  0
 18 38  1  0  0  0  0
 18 52  1  0  0  0  0
 18108  1  0  0  0  0
 19 42  1  0  0  0  0
 19115  1  0  0  0  0
 19116  1  0  0  0  0
 20 50  1  0  0  0  0
 20 55  1  0  0  0  0
 20119  1  0  0  0  0
 21 51  1  0  0  0  0
 21 61  1  0  0  0  0
 21120  1  0  0  0  0
 22 60  1  0  0  0  0
 22135  1  0  0  0  0
 22136  1  0  0  0  0
 23 65  1  0  0  0  0
 23142  1  0  0  0  0
 23143  1  0  0  0  0
 24 25  1  0  0  0  0
 24 31  1  0  0  0  0
 24 78  1  0  0  0  0
 25 29  1  0  0  0  0
 25 79  1  0  0  0  0
 25 80  1  0  0  0  0
 26 28  1  0  0  0  0
 26 35  1  0  0  0  0
 26 81  1  0  0  0  0
 27 30  1  0  0  0  0
 27 32  1  0  0  0  0
 27 82  1  0  0  0  0
 28 36  1  0  0  0  0
 28 37  1  0  0  0  0
 28 83  1  0  0  0  0
 29 34  1  0  0  0  0
 29 84  1  0  0  0  0
 29 85  1  0  0  0  0
 30 33  1  0  0  0  0
 30 86  1  0  0  0  0
 30 87  1  0  0  0  0
 33 39  1  0  0  0  0
 33 41  2  0  0  0  0
 34 42  1  0  0  0  0
 34 90  1  0  0  0  0
 34 91  1  0  0  0  0
 36 96  1  0  0  0  0
 36 97  1  0  0  0  0
 36 98  1  0  0  0  0
 37 93  1  0  0  0  0
 37 94  1  0  0  0  0
 37 95  1  0  0  0  0
 38 40  1  0  0  0  0
 38 44  1  0  0  0  0
 38 99  1  0  0  0  0
 39 43  1  0  0  0  0
 39 46  2  0  0  0  0
 41100  1  0  0  0  0
 42101  1  0  0  0  0
 42102  1  0  0  0  0
 43 48  2  0  0  0  0
 44 47  1  0  0  0  0
 44104  1  0  0  0  0
 44105  1  0  0  0  0
 45 49  1  0  0  0  0
 45 50  1  0  0  0  0
 45106  1  0  0  0  0
 46 53  1  0  0  0  0
 46109  1  0  0  0  0
 47 56  2  0  0  0  0
 47 57  1  0  0  0  0
 48 54  1  0  0  0  0
 48110  1  0  0  0  0
 49111  1  0  0  0  0
 49112  1  0  0  0  0
 51 52  1  0  0  0  0
 51 58  1  0  0  0  0
 51113  1  0  0  0  0
 53 54  2  0  0  0  0
 53114  1  0  0  0  0
 54117  1  0  0  0  0
 55 59  1  0  0  0  0
 55 65  1  0  0  0  0
 55118  1  0  0  0  0
 56 63  1  0  0  0  0
 56121  1  0  0  0  0
 57 64  2  0  0  0  0
 57122  1  0  0  0  0
 58123  1  0  0  0  0
 58124  1  0  0  0  0
 59 68  1  0  0  0  0
 59125  1  0  0  0  0
 60 61  1  0  0  0  0
 60 62  1  0  0  0  0
 60126  1  0  0  0  0
 62 66  1  0  0  0  0
 62127  1  0  0  0  0
 62128  1  0  0  0  0
 63 67  2  0  0  0  0
 63129  1  0  0  0  0
 64 67  1  0  0  0  0
 64130  1  0  0  0  0
 66 69  2  0  0  0  0
 66 70  1  0  0  0  0
 68132  1  0  0  0  0
 68133  1  0  0  0  0
 68134  1  0  0  0  0
 69 71  1  0  0  0  0
 69137  1  0  0  0  0
 70 73  2  0  0  0  0
 70139  1  0  0  0  0
 71 72  1  0  0  0  0
 71 74  2  0  0  0  0
 72 73  1  0  0  0  0
 72 75  2  0  0  0  0
 73141  1  0  0  0  0
 74 76  1  0  0  0  0
 74144  1  0  0  0  0
 75 77  1  0  0  0  0
 75146  1  0  0  0  0
 76 77  2  0  0  0  0
 76147  1  0  0  0  0
 77148  1  0  0  0  0
M  END
> <PUBCHEM_COMPOUND_CID>
365716

> <PUBCHEM_COMPOUND_CANONICALIZED>
1

> <PUBCHEM_CACTVS_COMPLEXITY>
1970

> <PUBCHEM_CACTVS_HBOND_ACCEPTOR>
14

> <PUBCHEM_CACTVS_HBOND_DONOR>
15

> <PUBCHEM_CACTVS_ROTATABLE_BOND>
29

> <PUBCHEM_CACTVS_SUBSKEYS>
AAADcfB//ABgAAAAAAAAAAAAAAAAAWAAAAAwYMGAAAAAAFjB9AAAHgQQCAAADTzl3ga+xvLJkgSoAzV3VACCgCAxIiAI2aG+bJgKdvbCkbOUcAhm9hHY2AeYyeCO4AACAAASAADAAAQAACQAAAAAAAAAAA==

> <PUBCHEM_IUPAC_OPENEYE_NAME>
6-amino-2-[[2-[[2-[[2-[[2-amino-3-(2-naphthyl)propanoyl]amino]-3-sulfanyl-propanoyl]amino]-3-(4-hydroxyphenyl)propanoyl]amino]-3-(1H-indol-3-yl)propanoyl]amino]-N-[1-[[2-[(1-carbamoyl-2-hydroxy-propyl)amino]-2-oxo-1-(sulfanylmethyl)ethyl]carbamoyl]-2-methyl-propyl]hexanamide

> <PUBCHEM_IUPAC_CAS_NAME>
6-amino-N-[1-[[1-[(1-amino-3-hydroxy-1-oxobutan-2-yl)amino]-3-mercapto-1-oxopropan-2-yl]amino]-3-methyl-1-oxobutan-2-yl]-2-[[2-[[2-[[2-[[2-amino-3-(2-naphthalenyl)-1-oxopropyl]amino]-3-mercapto-1-oxopropyl]amino]-3-(4-hydroxyphenyl)-1-oxopropyl]amino]-3-(1H-indol-3-yl)-1-oxopropyl]amino]hexanamide

> <PUBCHEM_IUPAC_NAME>
6-amino-N-[1-[[1-[(1-amino-3-hydroxy-1-oxobutan-2-yl)amino]-1-oxo-3-sulfanylpropan-2-yl]amino]-3-methyl-1-oxobutan-2-yl]-2-[[2-[[2-[[2-[(2-amino-3-naphthalen-2-ylpropanoyl)amino]-3-sulfanylpropanoyl]amino]-3-(4-hydroxyphenyl)propanoyl]amino]-3-(1H-indol-3-yl)propanoyl]amino]hexanamide

> <PUBCHEM_IUPAC_SYSTEMATIC_NAME>
6-azanyl-2-[[2-[[2-[[2-[(2-azanyl-3-naphthalen-2-yl-propanoyl)amino]-3-sulfanyl-propanoyl]amino]-3-(4-hydroxyphenyl)propanoyl]amino]-3-(1H-indol-3-yl)propanoyl]amino]-N-[1-[[1-[(1-azanyl-3-oxidanyl-1-oxidanylidene-butan-2-yl)amino]-1-oxidanylidene-3-sulfanyl-propan-2-yl]amino]-3-methyl-1-oxidanylidene-butan-2-yl]hexanamide

> <PUBCHEM_IUPAC_TRADITIONAL_NAME>
6-amino-2-[[2-[[2-[[2-[[2-amino-3-(2-naphthyl)propanoyl]amino]-3-mercapto-propanoyl]amino]-3-(4-hydroxyphenyl)propanoyl]amino]-3-(1H-indol-3-yl)propanoyl]amino]-N-[1-[[2-[(1-carbamoyl-2-hydroxy-propyl)amino]-2-keto-1-(mercaptomethyl)ethyl]carbamoyl]-2-methyl-propyl]hexanamide

> <PUBCHEM_IUPAC_INCHI>
InChI=1S/C54H71N11O10S2/c1-29(2)45(54(75)63-44(28-77)53(74)65-46(30(3)66)47(57)68)64-49(70)40(14-8-9-21-55)59-51(72)42(25-35-26-58-39-13-7-6-12-37(35)39)61-50(71)41(24-31-16-19-36(67)20-17-31)60-52(73)43(27-76)62-48(69)38(56)23-32-15-18-33-10-4-5-11-34(33)22-32/h4-7,10-13,15-20,22,26,29-30,38,40-46,58,66-67,76-77H,8-9,14,21,23-25,27-28,55-56H2,1-3H3,(H2,57,68)(H,59,72)(H,60,73)(H,61,71)(H,62,69)(H,63,75)(H,64,70)(H,65,74)

> <PUBCHEM_IUPAC_INCHIKEY>
UGVPPRZHXAMSJP-UHFFFAOYSA-N

> <PUBCHEM_XLOGP3_AA>
2.6

> <PUBCHEM_EXACT_MASS>
1097.48268

> <PUBCHEM_MOLECULAR_FORMULA>
C54H71N11O10S2

> <PUBCHEM_MOLECULAR_WEIGHT>
1098.33924

> <PUBCHEM_OPENEYE_CAN_SMILES>
CC(C)C(C(=O)NC(CS)C(=O)NC(C(C)O)C(=O)N)NC(=O)C(CCCCN)NC(=O)C(CC1=CNC2=CC=CC=C21)NC(=O)C(CC3=CC=C(C=C3)O)NC(=O)C(CS)NC(=O)C(CC4=CC5=CC=CC=C5C=C4)N

> <PUBCHEM_OPENEYE_ISO_SMILES>
CC(C)C(C(=O)NC(CS)C(=O)NC(C(C)O)C(=O)N)NC(=O)C(CCCCN)NC(=O)C(CC1=CNC2=CC=CC=C21)NC(=O)C(CC3=CC=C(C=C3)O)NC(=O)C(CS)NC(=O)C(CC4=CC5=CC=CC=C5C=C4)N

> <PUBCHEM_CACTVS_TPSA>
357

> <PUBCHEM_MONOISOTOPIC_WEIGHT>
1097.48268

> <PUBCHEM_TOTAL_CHARGE>
0

> <PUBCHEM_HEAVY_ATOM_COUNT>
77

> <PUBCHEM_ATOM_DEF_STEREO_COUNT>
0

> <PUBCHEM_ATOM_UDEF_STEREO_COUNT>
9

> <PUBCHEM_BOND_DEF_STEREO_COUNT>
0

> <PUBCHEM_BOND_UDEF_STEREO_COUNT>
0

> <PUBCHEM_ISOTOPIC_ATOM_COUNT>
0

> <PUBCHEM_COMPONENT_COUNT>
1

> <PUBCHEM_CACTVS_TAUTO_COUNT>
768

> <PUBCHEM_COORDINATE_TYPE>
1
5
255

> <PUBCHEM_BONDANNOTATIONS>
17  41  8
17  43  8
60  22  3
24  25  3
26  28  3
27  30  3
33  39  8
33  41  8
38  44  3
39  43  8
39  46  8
43  48  8
45  49  3
46  53  8
47  56  8
47  57  8
48  54  8
51  58  3
53  54  8
55  65  3
56  63  8
57  64  8
63  67  8
64  67  8
66  69  8
66  70  8
69  71  8
70  73  8
71  72  8
71  74  8
72  73  8
72  75  8
74  76  8
75  77  8
76  77  8
59  9  3

$$$$
