3702
  -OEChem-12171208032D

 40 42  0     1  0  0  0  0  0999 V2000
    7.2101    3.3818    0.0000 Cl  0  0  0  0  0  0  0  0  0  0  0  0
    8.5458    1.8932    0.0000 S   0  0  0  0  0  0  0  0  0  0  0  0
    6.6353   -1.1646    0.0000 O   0  0  0  0  0  0  0  0  0  0  0  0
    8.7520    0.9147    0.0000 O   0  0  0  0  0  0  0  0  0  0  0  0
    8.3396    2.8717    0.0000 O   0  0  0  0  0  0  0  0  0  0  0  0
    4.6783   -1.5770    0.0000 N   0  0  3  0  0  0  0  0  0  0  0  0
    4.9889   -0.6265    0.0000 N   0  0  0  0  0  0  0  0  0  0  0  0
    9.5243    2.0994    0.0000 N   0  0  0  0  0  0  0  0  0  0  0  0
    5.2619   -2.3818    0.0000 C   0  0  3  0  0  0  0  0  0  0  0  0
    4.6783   -3.1865    0.0000 C   0  0  0  0  0  0  0  0  0  0  0  0
    3.7320   -2.8818    0.0000 C   0  0  0  0  0  0  0  0  0  0  0  0
    3.7320   -1.8818    0.0000 C   0  0  0  0  0  0  0  0  0  0  0  0
    6.2619   -2.3818    0.0000 C   0  0  0  0  0  0  0  0  0  0  0  0
    2.8660   -3.3818    0.0000 C   0  0  0  0  0  0  0  0  0  0  0  0
    2.8660   -1.3818    0.0000 C   0  0  0  0  0  0  0  0  0  0  0  0
    2.0000   -2.8818    0.0000 C   0  0  0  0  0  0  0  0  0  0  0  0
    2.0000   -1.8818    0.0000 C   0  0  0  0  0  0  0  0  0  0  0  0
    5.9674   -0.4203    0.0000 C   0  0  0  0  0  0  0  0  0  0  0  0
    6.2781    0.5302    0.0000 C   0  0  0  0  0  0  0  0  0  0  0  0
    7.2566    0.7364    0.0000 C   0  0  0  0  0  0  0  0  0  0  0  0
    7.5673    1.6870    0.0000 C   0  0  0  0  0  0  0  0  0  0  0  0
    5.6103    1.2745    0.0000 C   0  0  0  0  0  0  0  0  0  0  0  0
    6.8994    2.4313    0.0000 C   0  0  0  0  0  0  0  0  0  0  0  0
    5.9209    2.2250    0.0000 C   0  0  0  0  0  0  0  0  0  0  0  0
    5.5436   -1.8295    0.0000 H   0  0  0  0  0  0  0  0  0  0  0  0
    4.4272   -3.7534    0.0000 H   0  0  0  0  0  0  0  0  0  0  0  0
    5.2156   -3.4957    0.0000 H   0  0  0  0  0  0  0  0  0  0  0  0
    6.2619   -3.0018    0.0000 H   0  0  0  0  0  0  0  0  0  0  0  0
    6.8819   -2.3818    0.0000 H   0  0  0  0  0  0  0  0  0  0  0  0
    6.2619   -1.7618    0.0000 H   0  0  0  0  0  0  0  0  0  0  0  0
    4.5749   -0.1651    0.0000 H   0  0  0  0  0  0  0  0  0  0  0  0
    2.8660   -4.0018    0.0000 H   0  0  0  0  0  0  0  0  0  0  0  0
    2.8660   -0.7618    0.0000 H   0  0  0  0  0  0  0  0  0  0  0  0
    1.4631   -3.1918    0.0000 H   0  0  0  0  0  0  0  0  0  0  0  0
    1.4631   -1.5718    0.0000 H   0  0  0  0  0  0  0  0  0  0  0  0
    7.6707    0.2750    0.0000 H   0  0  0  0  0  0  0  0  0  0  0  0
    5.0036    1.1467    0.0000 H   0  0  0  0  0  0  0  0  0  0  0  0
    5.5069    2.6865    0.0000 H   0  0  0  0  0  0  0  0  0  0  0  0
    9.7169    2.6887    0.0000 H   0  0  0  0  0  0  0  0  0  0  0  0
    9.9383    1.6379    0.0000 H   0  0  0  0  0  0  0  0  0  0  0  0
  1 23  1  0  0  0  0
  2  4  2  0  0  0  0
  2  5  2  0  0  0  0
  2  8  1  0  0  0  0
  2 21  1  0  0  0  0
  3 18  2  0  0  0  0
  6  7  1  0  0  0  0
  6  9  1  0  0  0  0
  6 12  1  0  0  0  0
  7 18  1  0  0  0  0
  7 31  1  0  0  0  0
  8 39  1  0  0  0  0
  8 40  1  0  0  0  0
  9 10  1  0  0  0  0
  9 13  1  0  0  0  0
  9 25  1  0  0  0  0
 10 11  1  0  0  0  0
 10 26  1  0  0  0  0
 10 27  1  0  0  0  0
 11 12  1  0  0  0  0
 11 14  2  0  0  0  0
 12 15  2  0  0  0  0
 13 28  1  0  0  0  0
 13 29  1  0  0  0  0
 13 30  1  0  0  0  0
 14 16  1  0  0  0  0
 14 32  1  0  0  0  0
 15 17  1  0  0  0  0
 15 33  1  0  0  0  0
 16 17  2  0  0  0  0
 16 34  1  0  0  0  0
 17 35  1  0  0  0  0
 18 19  1  0  0  0  0
 19 20  2  0  0  0  0
 19 22  1  0  0  0  0
 20 21  1  0  0  0  0
 20 36  1  0  0  0  0
 21 23  2  0  0  0  0
 22 24  2  0  0  0  0
 22 37  1  0  0  0  0
 23 24  1  0  0  0  0
 24 38  1  0  0  0  0
M  END
> <PUBCHEM_COMPOUND_CID>
3702

> <PUBCHEM_COMPOUND_CANONICALIZED>
1

> <PUBCHEM_CACTVS_COMPLEXITY>
580

> <PUBCHEM_CACTVS_HBOND_ACCEPTOR>
5

> <PUBCHEM_CACTVS_HBOND_DONOR>
2

> <PUBCHEM_CACTVS_ROTATABLE_BOND>
3

> <PUBCHEM_CACTVS_SUBSKEYS>
AAADceB7MABEAAAAAAAAAAAAAAAAAWAAAAAwYAAAAAAAAFgBQAAAHgYYQAAADCrB2CQywYJiAAKIAiVSUHDCBBAlBwAaqBkIZsgIIDLBl5GEIQhggADIyYcYiICOBAAAgAACAIAIAAEAAAQBAAAAAAAAAA==

> <PUBCHEM_IUPAC_OPENEYE_NAME>
4-chloro-N-(2-methylindolin-1-yl)-3-sulfamoyl-benzamide

> <PUBCHEM_IUPAC_CAS_NAME>
4-chloro-N-(2-methyl-2,3-dihydroindol-1-yl)-3-sulfamoylbenzamide

> <PUBCHEM_IUPAC_NAME>
4-chloro-N-(2-methyl-2,3-dihydroindol-1-yl)-3-sulfamoylbenzamide

> <PUBCHEM_IUPAC_SYSTEMATIC_NAME>
4-chloranyl-N-(2-methyl-2,3-dihydroindol-1-yl)-3-sulfamoyl-benzamide

> <PUBCHEM_IUPAC_TRADITIONAL_NAME>
4-chloro-N-(2-methylindolin-1-yl)-3-sulfamoyl-benzamide

> <PUBCHEM_IUPAC_INCHI>
InChI=1S/C16H16ClN3O3S/c1-10-8-11-4-2-3-5-14(11)20(10)19-16(21)12-6-7-13(17)15(9-12)24(18,22)23/h2-7,9-10H,8H2,1H3,(H,19,21)(H2,18,22,23)

> <PUBCHEM_IUPAC_INCHIKEY>
NDDAHWYSQHTHNT-UHFFFAOYSA-N

> <PUBCHEM_XLOGP3_AA>
2.9

> <PUBCHEM_EXACT_MASS>
365.06009

> <PUBCHEM_MOLECULAR_FORMULA>
C16H16ClN3O3S

> <PUBCHEM_MOLECULAR_WEIGHT>
365.83454

> <PUBCHEM_OPENEYE_CAN_SMILES>
CC1CC2=CC=CC=C2N1NC(=O)C3=CC(=C(C=C3)Cl)S(=O)(=O)N

> <PUBCHEM_OPENEYE_ISO_SMILES>
CC1CC2=CC=CC=C2N1NC(=O)C3=CC(=C(C=C3)Cl)S(=O)(=O)N

> <PUBCHEM_CACTVS_TPSA>
101

> <PUBCHEM_MONOISOTOPIC_WEIGHT>
365.06009

> <PUBCHEM_TOTAL_CHARGE>
0

> <PUBCHEM_HEAVY_ATOM_COUNT>
24

> <PUBCHEM_ATOM_DEF_STEREO_COUNT>
0

> <PUBCHEM_ATOM_UDEF_STEREO_COUNT>
1

> <PUBCHEM_BOND_DEF_STEREO_COUNT>
0

> <PUBCHEM_BOND_UDEF_STEREO_COUNT>
0

> <PUBCHEM_ISOTOPIC_ATOM_COUNT>
0

> <PUBCHEM_COMPONENT_COUNT>
1

> <PUBCHEM_CACTVS_TAUTO_COUNT>
2

> <PUBCHEM_COORDINATE_TYPE>
1
5
255

> <PUBCHEM_BONDANNOTATIONS>
11  12  8
11  14  8
12  15  8
14  16  8
15  17  8
16  17  8
19  20  8
19  22  8
20  21  8
21  23  8
22  24  8
23  24  8
9  13  3

$$$$
