38904
  -OEChem-12171208182D

 27 24  0     0  0  0  0  0  0999 V2000
    4.8059    3.8526    0.0000 Pt  0  0  0  0  0  0  0  0  0  0  0  0
    5.6720    3.3526    0.0000 O   0  0  0  0  0  0  0  0  0  0  0  0
    3.9399    3.3526    0.0000 O   0  0  0  0  0  0  0  0  0  0  0  0
    6.5380    1.8526    0.0000 O   0  0  0  0  0  0  0  0  0  0  0  0
    3.0739    1.8526    0.0000 O   0  0  0  0  0  0  0  0  0  0  0  0
    0.5369    3.5463    0.0000 N   0  0  0  0  0  0  0  0  0  0  0  0
    4.8059    6.4726    0.0000 N   0  0  0  0  0  0  0  0  0  0  0  0
    4.8059    1.8526    0.0000 C   0  0  0  0  0  0  0  0  0  0  0  0
    5.5130    1.1455    0.0000 C   0  0  0  0  0  0  0  0  0  0  0  0
    4.0988    1.1455    0.0000 C   0  0  0  0  0  0  0  0  0  0  0  0
    4.8059    0.4384    0.0000 C   0  0  0  0  0  0  0  0  0  0  0  0
    3.9399    2.3526    0.0000 C   0  0  0  0  0  0  0  0  0  0  0  0
    5.6720    2.3526    0.0000 C   0  0  0  0  0  0  0  0  0  0  0  0
    5.9514    0.7071    0.0000 H   0  0  0  0  0  0  0  0  0  0  0  0
    5.9514    1.5839    0.0000 H   0  0  0  0  0  0  0  0  0  0  0  0
    3.6604    1.5839    0.0000 H   0  0  0  0  0  0  0  0  0  0  0  0
    3.6604    0.7071    0.0000 H   0  0  0  0  0  0  0  0  0  0  0  0
    4.3675    0.0000    0.0000 H   0  0  0  0  0  0  0  0  0  0  0  0
    5.2443    0.0000    0.0000 H   0  0  0  0  0  0  0  0  0  0  0  0
    3.4030    3.6626    0.0000 H   0  0  0  0  0  0  0  0  0  0  0  0
    6.2089    3.6626    0.0000 H   0  0  0  0  0  0  0  0  0  0  0  0
    1.0739    3.8563    0.0000 H   0  0  0  0  0  0  0  0  0  0  0  0
    0.0000    3.8563    0.0000 H   0  0  0  0  0  0  0  0  0  0  0  0
    0.5369    2.9263    0.0000 H   0  0  0  0  0  0  0  0  0  0  0  0
    5.3429    6.7826    0.0000 H   0  0  0  0  0  0  0  0  0  0  0  0
    4.2690    6.7826    0.0000 H   0  0  0  0  0  0  0  0  0  0  0  0
    4.8059    5.8526    0.0000 H   0  0  0  0  0  0  0  0  0  0  0  0
  2 13  1  0  0  0  0
  2 21  1  0  0  0  0
  3 12  1  0  0  0  0
  3 20  1  0  0  0  0
  4 13  2  0  0  0  0
  5 12  2  0  0  0  0
  6 22  1  0  0  0  0
  6 23  1  0  0  0  0
  6 24  1  0  0  0  0
  7 25  1  0  0  0  0
  7 26  1  0  0  0  0
  7 27  1  0  0  0  0
  8  9  1  0  0  0  0
  8 10  1  0  0  0  0
  8 12  1  0  0  0  0
  8 13  1  0  0  0  0
  9 11  1  0  0  0  0
  9 14  1  0  0  0  0
  9 15  1  0  0  0  0
 10 11  1  0  0  0  0
 10 16  1  0  0  0  0
 10 17  1  0  0  0  0
 11 18  1  0  0  0  0
 11 19  1  0  0  0  0
M  END
> <PUBCHEM_COMPOUND_CID>
38904

> <PUBCHEM_COMPOUND_CANONICALIZED>
1

> <PUBCHEM_CACTVS_COMPLEXITY>
169

> <PUBCHEM_CACTVS_HBOND_ACCEPTOR>
6

> <PUBCHEM_CACTVS_HBOND_DONOR>
4

> <PUBCHEM_CACTVS_ROTATABLE_BOND>
0

> <PUBCHEM_CACTVS_SUBSKEYS>
AAADccBjOAAAAAAAAAAABAAAAABgAAAAAAAkAAAAAAAAAAAAAAAAGgAQCAAADgCAgAAACAAAAgAIAACQCAAAAAAAAAAAAAEAAAAAABYIAAAAQAAFIAAAAACIAAANAAAAAAAAAAAAAAAAAAAAAAAAAAAAAA==

> <PUBCHEM_IUPAC_OPENEYE_NAME>
ammonia;cyclobutane-1,1-dicarboxylic acid;platinum

> <PUBCHEM_IUPAC_CAS_NAME>
ammonia;cyclobutane-1,1-dicarboxylic acid;platinum

> <PUBCHEM_IUPAC_NAME>
azane;cyclobutane-1,1-dicarboxylic acid;platinum

> <PUBCHEM_IUPAC_SYSTEMATIC_NAME>
azane;cyclobutane-1,1-dicarboxylic acid;platinum

> <PUBCHEM_IUPAC_TRADITIONAL_NAME>
ammonia;cyclobutane-1,1-dicarboxylic acid;platinum

> <PUBCHEM_IUPAC_INCHI>
InChI=1S/C6H8O4.2H3N.Pt/c7-4(8)6(5(9)10)2-1-3-6;;;/h1-3H2,(H,7,8)(H,9,10);2*1H3;

> <PUBCHEM_IUPAC_INCHIKEY>
DVQHYTBCTGYNNN-UHFFFAOYSA-N

> <PUBCHEM_EXACT_MASS>
373.060148

> <PUBCHEM_MOLECULAR_FORMULA>
C6H14N2O4Pt

> <PUBCHEM_MOLECULAR_WEIGHT>
373.27036

> <PUBCHEM_OPENEYE_CAN_SMILES>
C1CC(C1)(C(=O)O)C(=O)O.N.N.[Pt]

> <PUBCHEM_OPENEYE_ISO_SMILES>
C1CC(C1)(C(=O)O)C(=O)O.N.N.[Pt]

> <PUBCHEM_CACTVS_TPSA>
76.6

> <PUBCHEM_MONOISOTOPIC_WEIGHT>
373.060148

> <PUBCHEM_TOTAL_CHARGE>
0

> <PUBCHEM_HEAVY_ATOM_COUNT>
13

> <PUBCHEM_ATOM_DEF_STEREO_COUNT>
0

> <PUBCHEM_ATOM_UDEF_STEREO_COUNT>
0

> <PUBCHEM_BOND_DEF_STEREO_COUNT>
0

> <PUBCHEM_BOND_UDEF_STEREO_COUNT>
0

> <PUBCHEM_ISOTOPIC_ATOM_COUNT>
0

> <PUBCHEM_COMPONENT_COUNT>
4

> <PUBCHEM_CACTVS_TAUTO_COUNT>
3

> <PUBCHEM_NONSTANDARDBOND>
1  2  6
1  3  6

> <PUBCHEM_COORDINATE_TYPE>
1
5
255

$$$$
