40976
  -OEChem-12171208182D

 52 55  0     1  0  0  0  0  0999 V2000
    8.0319    1.8849    0.0000 O   0  0  0  0  0  0  0  0  0  0  0  0
    2.0000   -2.4238    0.0000 O   0  0  0  0  0  0  0  0  0  0  0  0
    7.3931    0.6286    0.0000 C   0  0  3  0  0  0  0  0  0  0  0  0
    7.3931   -0.3714    0.0000 C   0  0  3  0  0  0  0  0  0  0  0  0
    6.5271   -0.8714    0.0000 C   0  0  3  0  0  0  0  0  0  0  0  0
    5.6610   -0.3714    0.0000 C   0  0  3  0  0  0  0  0  0  0  0  0
    8.3393    0.9333    0.0000 C   0  0  2  0  0  0  0  0  0  0  0  0
    8.3393   -0.6762    0.0000 C   0  0  0  0  0  0  0  0  0  0  0  0
    6.5271    1.1286    0.0000 C   0  0  0  0  0  0  0  0  0  0  0  0
    8.9229    0.1286    0.0000 C   0  0  0  0  0  0  0  0  0  0  0  0
    4.7510   -0.8783    0.0000 C   0  0  3  0  0  0  0  0  0  0  0  0
    5.6610    0.6286    0.0000 C   0  0  0  0  0  0  0  0  0  0  0  0
    6.5431   -1.9130    0.0000 C   0  0  0  0  0  0  0  0  0  0  0  0
    7.3931    1.6286    0.0000 C   0  0  0  0  0  0  0  0  0  0  0  0
    5.6451   -2.4407    0.0000 C   0  0  0  0  0  0  0  0  0  0  0  0
    4.7430   -1.9199    0.0000 C   0  0  0  0  0  0  0  0  0  0  0  0
    3.8242   -0.3142    0.0000 C   0  0  0  0  0  0  0  0  0  0  0  0
    6.5271    2.1286    0.0000 C   0  0  0  0  0  0  0  0  0  0  0  0
    9.1493    1.5197    0.0000 C   0  0  0  0  0  0  0  0  0  0  0  0
    4.7950    1.1286    0.0000 C   0  0  0  0  0  0  0  0  0  0  0  0
    2.8763   -0.8422    0.0000 C   0  0  0  0  0  0  0  0  0  0  0  0
    3.8076   -2.4696    0.0000 C   0  0  0  0  0  0  0  0  0  0  0  0
    2.8680   -1.9271    0.0000 C   0  0  0  0  0  0  0  0  0  0  0  0
    9.9594    2.1061    0.0000 C   0  0  0  0  0  0  0  0  0  0  0  0
    7.4830   -1.2167    0.0000 H   0  0  0  0  0  0  0  0  0  0  0  0
    7.2664   -1.2908    0.0000 H   0  0  0  0  0  0  0  0  0  0  0  0
    6.3972    0.0536    0.0000 H   0  0  0  0  0  0  0  0  0  0  0  0
    8.0883   -1.2431    0.0000 H   0  0  0  0  0  0  0  0  0  0  0  0
    8.8767   -0.9854    0.0000 H   0  0  0  0  0  0  0  0  0  0  0  0
    6.9256    1.6035    0.0000 H   0  0  0  0  0  0  0  0  0  0  0  0
    6.1285    1.6035    0.0000 H   0  0  0  0  0  0  0  0  0  0  0  0
    9.3838   -0.2862    0.0000 H   0  0  0  0  0  0  0  0  0  0  0  0
    9.3838    0.5433    0.0000 H   0  0  0  0  0  0  0  0  0  0  0  0
    4.7674   -0.0284    0.0000 H   0  0  0  0  0  0  0  0  0  0  0  0
    6.7612   -2.4934    0.0000 H   0  0  0  0  0  0  0  0  0  0  0  0
    7.1523   -1.7974    0.0000 H   0  0  0  0  0  0  0  0  0  0  0  0
    8.0037    1.5209    0.0000 H   0  0  0  0  0  0  0  0  0  0  0  0
    7.6051    2.2112    0.0000 H   0  0  0  0  0  0  0  0  0  0  0  0
    5.2478   -2.9167    0.0000 H   0  0  0  0  0  0  0  0  0  0  0  0
    6.0460   -2.9136    0.0000 H   0  0  0  0  0  0  0  0  0  0  0  0
    4.2324    0.1524    0.0000 H   0  0  0  0  0  0  0  0  0  0  0  0
    3.4343    0.1678    0.0000 H   0  0  0  0  0  0  0  0  0  0  0  0
    6.8371    2.6655    0.0000 H   0  0  0  0  0  0  0  0  0  0  0  0
    5.9901    2.4386    0.0000 H   0  0  0  0  0  0  0  0  0  0  0  0
    6.2171    1.5916    0.0000 H   0  0  0  0  0  0  0  0  0  0  0  0
    8.4476    2.3449    0.0000 H   0  0  0  0  0  0  0  0  0  0  0  0
    4.7950    1.7486    0.0000 H   0  0  0  0  0  0  0  0  0  0  0  0
    4.2581    0.8186    0.0000 H   0  0  0  0  0  0  0  0  0  0  0  0
    2.6718   -0.2569    0.0000 H   0  0  0  0  0  0  0  0  0  0  0  0
    2.2647   -0.9435    0.0000 H   0  0  0  0  0  0  0  0  0  0  0  0
    3.8100   -3.0896    0.0000 H   0  0  0  0  0  0  0  0  0  0  0  0
   10.4616    2.4696    0.0000 H   0  0  0  0  0  0  0  0  0  0  0  0
  7  1  1  1  0  0  0
  1 46  1  0  0  0  0
  2 23  2  0  0  0  0
  3  4  1  0  0  0  0
  3  7  1  0  0  0  0
  3  9  1  0  0  0  0
  3 14  1  0  0  0  0
  4  5  1  0  0  0  0
  4  8  1  0  0  0  0
  4 25  1  0  0  0  0
  5  6  1  0  0  0  0
  5 13  1  0  0  0  0
  5 26  1  0  0  0  0
  6 11  1  0  0  0  0
  6 12  1  0  0  0  0
  6 27  1  0  0  0  0
  7 10  1  0  0  0  0
  7 19  1  0  0  0  0
  8 10  1  0  0  0  0
  8 28  1  0  0  0  0
  8 29  1  0  0  0  0
  9 12  1  0  0  0  0
  9 30  1  0  0  0  0
  9 31  1  0  0  0  0
 10 32  1  0  0  0  0
 10 33  1  0  0  0  0
 11 16  1  0  0  0  0
 11 17  1  0  0  0  0
 11 34  1  0  0  0  0
 12 20  2  0  0  0  0
 13 15  1  0  0  0  0
 13 35  1  0  0  0  0
 13 36  1  0  0  0  0
 14 18  1  0  0  0  0
 14 37  1  0  0  0  0
 14 38  1  0  0  0  0
 15 16  1  0  0  0  0
 15 39  1  0  0  0  0
 15 40  1  0  0  0  0
 16 22  2  0  0  0  0
 17 21  1  0  0  0  0
 17 41  1  0  0  0  0
 17 42  1  0  0  0  0
 18 43  1  0  0  0  0
 18 44  1  0  0  0  0
 18 45  1  0  0  0  0
 19 24  3  0  0  0  0
 20 47  1  0  0  0  0
 20 48  1  0  0  0  0
 21 23  1  0  0  0  0
 21 49  1  0  0  0  0
 21 50  1  0  0  0  0
 22 23  1  0  0  0  0
 22 51  1  0  0  0  0
 24 52  1  0  0  0  0
M  END
> <PUBCHEM_COMPOUND_CID>
40976

> <PUBCHEM_COMPOUND_CANONICALIZED>
1

> <PUBCHEM_CACTVS_COMPLEXITY>
677

> <PUBCHEM_CACTVS_HBOND_ACCEPTOR>
2

> <PUBCHEM_CACTVS_HBOND_DONOR>
1

> <PUBCHEM_CACTVS_ROTATABLE_BOND>
2

> <PUBCHEM_CACTVS_SUBSKEYS>
AAADceB4MAAAAAAAAAAAAAAAAAAAAYAAAAAwYIAAAAAAAGDAAAAAGgAACAAAD0SAgAACAAAAAgDIGqBSAAgAAAAgAAAACAEAAEgAABIAAQAAQAAEgAAIAQOIyPCPgAAAAAAAAACAAAQAACAAAYAADAAAAA==

> <PUBCHEM_IUPAC_OPENEYE_NAME>
(17R)-13-ethyl-17-ethynyl-17-hydroxy-11-methylene-2,6,7,8,9,10,12,14,15,16-decahydro-1H-cyclopenta[a]phenanthren-3-one

> <PUBCHEM_IUPAC_CAS_NAME>
(17R)-13-ethyl-17-ethynyl-17-hydroxy-11-methylene-2,6,7,8,9,10,12,14,15,16-decahydro-1H-cyclopenta[a]phenanthren-3-one

> <PUBCHEM_IUPAC_NAME>
(17R)-13-ethyl-17-ethynyl-17-hydroxy-11-methylidene-2,6,7,8,9,10,12,14,15,16-decahydro-1H-cyclopenta[a]phenanthren-3-one

> <PUBCHEM_IUPAC_SYSTEMATIC_NAME>
(17R)-13-ethyl-17-ethynyl-11-methylidene-17-oxidanyl-2,6,7,8,9,10,12,14,15,16-decahydro-1H-cyclopenta[a]phenanthren-3-one

> <PUBCHEM_IUPAC_TRADITIONAL_NAME>
(17R)-13-ethyl-17-ethynyl-17-hydroxy-11-methylene-2,6,7,8,9,10,12,14,15,16-decahydro-1H-cyclopenta[a]phenanthren-3-one

> <PUBCHEM_IUPAC_INCHI>
InChI=1S/C22H28O2/c1-4-21-13-14(3)20-17-9-7-16(23)12-15(17)6-8-18(20)19(21)10-11-22(21,24)5-2/h2,12,17-20,24H,3-4,6-11,13H2,1H3/t17?,18?,19?,20?,21?,22-/m0/s1

> <PUBCHEM_IUPAC_INCHIKEY>
GCKFUYQCUCGESZ-KIIRVTSASA-N

> <PUBCHEM_XLOGP3>
3.3

> <PUBCHEM_EXACT_MASS>
324.20893

> <PUBCHEM_MOLECULAR_FORMULA>
C22H28O2

> <PUBCHEM_MOLECULAR_WEIGHT>
324.45652

> <PUBCHEM_OPENEYE_CAN_SMILES>
CCC12CC(=C)C3C(C1CCC2(C#C)O)CCC4=CC(=O)CCC34

> <PUBCHEM_OPENEYE_ISO_SMILES>
CCC12CC(=C)C3C(C1CC[C@]2(C#C)O)CCC4=CC(=O)CCC34

> <PUBCHEM_CACTVS_TPSA>
37.3

> <PUBCHEM_MONOISOTOPIC_WEIGHT>
324.20893

> <PUBCHEM_TOTAL_CHARGE>
0

> <PUBCHEM_HEAVY_ATOM_COUNT>
24

> <PUBCHEM_ATOM_DEF_STEREO_COUNT>
1

> <PUBCHEM_ATOM_UDEF_STEREO_COUNT>
5

> <PUBCHEM_BOND_DEF_STEREO_COUNT>
0

> <PUBCHEM_BOND_UDEF_STEREO_COUNT>
0

> <PUBCHEM_ISOTOPIC_ATOM_COUNT>
0

> <PUBCHEM_COMPONENT_COUNT>
1

> <PUBCHEM_CACTVS_TAUTO_COUNT>
8

> <PUBCHEM_COORDINATE_TYPE>
1
5
255

> <PUBCHEM_BONDANNOTATIONS>
7  1  5
11  34  3
3  14  3
4  25  3
5  26  3
6  27  3

$$$$
