41744
  -OEChem-12171208182D

 87 91  0     1  0  0  0  0  0999 V2000
    8.1019    5.7761    0.0000 F   0  0  0  0  0  0  0  0  0  0  0  0
    9.0902    4.7646    0.0000 F   0  0  0  0  0  0  0  0  0  0  0  0
    7.0904    4.7878    0.0000 F   0  0  0  0  0  0  0  0  0  0  0  0
    8.9042    0.2665    0.0000 O   0  0  0  0  0  0  0  0  0  0  0  0
    7.1723    0.2865    0.0000 O   0  0  0  0  0  0  0  0  0  0  0  0
    7.4899   -3.1569    0.0000 O   0  0  0  0  0  0  0  0  0  0  0  0
    5.4635    2.3064    0.0000 O   0  0  0  0  0  0  0  0  0  0  0  0
   10.6526    0.2319    0.0000 O   0  0  0  0  0  0  0  0  0  0  0  0
   10.6526   -3.7681    0.0000 O   0  0  0  0  0  0  0  0  0  0  0  0
    6.4833   -1.4287    0.0000 O   0  0  0  0  0  0  0  0  0  0  0  0
    5.4900   -3.1646    0.0000 O   0  0  0  0  0  0  0  0  0  0  0  0
   12.4010    0.2665    0.0000 O   0  0  0  0  0  0  0  0  0  0  0  0
   12.4010   -3.8027    0.0000 O   0  0  0  0  0  0  0  0  0  0  0  0
    8.9389    3.2663    0.0000 O   0  0  0  0  0  0  0  0  0  0  0  0
   14.2383    0.3096    0.0000 O   0  0  0  0  0  0  0  0  0  0  0  0
    5.4966   -4.8966    0.0000 O   0  0  0  0  0  0  0  0  0  0  0  0
    7.2070    3.2863    0.0000 N   0  0  0  0  0  0  0  0  0  0  0  0
    8.8927   -0.7335    0.0000 C   0  0  1  0  0  0  0  0  0  0  0  0
    7.9866   -2.2889    0.0000 C   0  0  2  0  0  0  0  0  0  0  0  0
    7.9866   -1.2473    0.0000 C   0  0  0  0  0  0  0  0  0  0  0  0
    8.8927   -2.8028    0.0000 C   0  0  0  0  0  0  0  0  0  0  0  0
    9.7866   -1.2681    0.0000 C   0  0  0  0  0  0  0  0  0  0  0  0
    9.7866   -2.2681    0.0000 C   0  0  0  0  0  0  0  0  0  0  0  0
    8.0440    0.7765    0.0000 C   0  0  3  0  0  0  0  0  0  0  0  0
    7.1954    2.2864    0.0000 C   0  0  3  0  0  0  0  0  0  0  0  0
    8.0556    1.7764    0.0000 C   0  0  0  0  0  0  0  0  0  0  0  0
    6.3237    1.7964    0.0000 C   0  0  3  0  0  0  0  0  0  0  0  0
    6.3121    0.7965    0.0000 C   0  0  3  0  0  0  0  0  0  0  0  0
    6.9866   -2.2928    0.0000 C   0  0  0  0  0  0  0  0  0  0  0  0
   10.6526   -0.7681    0.0000 C   0  0  0  0  0  0  0  0  0  0  0  0
   10.6526   -2.7681    0.0000 C   0  0  0  0  0  0  0  0  0  0  0  0
   11.5187   -1.2681    0.0000 C   0  0  0  0  0  0  0  0  0  0  0  0
   11.5187   -2.2681    0.0000 C   0  0  0  0  0  0  0  0  0  0  0  0
    5.4404    0.3065    0.0000 C   0  0  0  0  0  0  0  0  0  0  0  0
    6.4900   -3.1607    0.0000 C   0  0  0  0  0  0  0  0  0  0  0  0
   12.4126   -0.7335    0.0000 C   0  0  0  0  0  0  0  0  0  0  0  0
   12.4126   -2.8028    0.0000 C   0  0  0  0  0  0  0  0  0  0  0  0
   13.3187   -1.2473    0.0000 C   0  0  0  0  0  0  0  0  0  0  0  0
   13.3187   -2.2889    0.0000 C   0  0  0  0  0  0  0  0  0  0  0  0
    8.0787    3.7763    0.0000 C   0  0  0  0  0  0  0  0  0  0  0  0
   14.2498   -0.6904    0.0000 C   0  0  0  0  0  0  0  0  0  0  0  0
   14.2498   -2.8458    0.0000 C   0  0  0  0  0  0  0  0  0  0  0  0
    8.0903    4.7762    0.0000 C   0  0  0  0  0  0  0  0  0  0  0  0
   15.1936   -1.2256    0.0000 C   0  0  0  0  0  0  0  0  0  0  0  0
   15.1936   -2.3106    0.0000 C   0  0  0  0  0  0  0  0  0  0  0  0
    4.9933   -4.0325    0.0000 C   0  0  0  0  0  0  0  0  0  0  0  0
    3.9933   -4.0364    0.0000 C   0  0  0  0  0  0  0  0  0  0  0  0
    3.4966   -4.9043    0.0000 C   0  0  0  0  0  0  0  0  0  0  0  0
   15.0985    0.8195    0.0000 C   0  0  0  0  0  0  0  0  0  0  0  0
    2.4967   -4.9082    0.0000 C   0  0  0  0  0  0  0  0  0  0  0  0
    2.0000   -5.7761    0.0000 C   0  0  0  0  0  0  0  0  0  0  0  0
    8.3588   -0.4183    0.0000 H   0  0  0  0  0  0  0  0  0  0  0  0
    7.7776   -0.6636    0.0000 H   0  0  0  0  0  0  0  0  0  0  0  0
    7.3758   -1.3534    0.0000 H   0  0  0  0  0  0  0  0  0  0  0  0
    8.4990   -3.2818    0.0000 H   0  0  0  0  0  0  0  0  0  0  0  0
    9.2973   -3.2726    0.0000 H   0  0  0  0  0  0  0  0  0  0  0  0
    8.5845    1.0802    0.0000 H   0  0  0  0  0  0  0  0  0  0  0  0
    7.7359    2.5902    0.0000 H   0  0  0  0  0  0  0  0  0  0  0  0
    8.6649    1.6617    0.0000 H   0  0  0  0  0  0  0  0  0  0  0  0
    8.2744    2.3565    0.0000 H   0  0  0  0  0  0  0  0  0  0  0  0
    6.3308    2.4164    0.0000 H   0  0  0  0  0  0  0  0  0  0  0  0
    6.3049    0.1765    0.0000 H   0  0  0  0  0  0  0  0  0  0  0  0
    7.8020   -3.6926    0.0000 H   0  0  0  0  0  0  0  0  0  0  0  0
    6.6737    3.6025    0.0000 H   0  0  0  0  0  0  0  0  0  0  0  0
    5.1366    0.8470    0.0000 H   0  0  0  0  0  0  0  0  0  0  0  0
    4.8999    0.0028    0.0000 H   0  0  0  0  0  0  0  0  0  0  0  0
    5.7441   -0.2339    0.0000 H   0  0  0  0  0  0  0  0  0  0  0  0
    6.3846   -3.7717    0.0000 H   0  0  0  0  0  0  0  0  0  0  0  0
    7.0734   -3.3705    0.0000 H   0  0  0  0  0  0  0  0  0  0  0  0
    4.9230    2.0026    0.0000 H   0  0  0  0  0  0  0  0  0  0  0  0
   11.1896    0.5419    0.0000 H   0  0  0  0  0  0  0  0  0  0  0  0
   10.1157   -4.0781    0.0000 H   0  0  0  0  0  0  0  0  0  0  0  0
   14.2427   -3.4658    0.0000 H   0  0  0  0  0  0  0  0  0  0  0  0
   15.7294   -0.9135    0.0000 H   0  0  0  0  0  0  0  0  0  0  0  0
   15.7294   -2.6227    0.0000 H   0  0  0  0  0  0  0  0  0  0  0  0
    4.0986   -3.4254    0.0000 H   0  0  0  0  0  0  0  0  0  0  0  0
    3.4099   -3.8266    0.0000 H   0  0  0  0  0  0  0  0  0  0  0  0
    3.3913   -5.5153    0.0000 H   0  0  0  0  0  0  0  0  0  0  0  0
    4.0801   -5.1141    0.0000 H   0  0  0  0  0  0  0  0  0  0  0  0
   15.4146    0.2862    0.0000 H   0  0  0  0  0  0  0  0  0  0  0  0
   15.6318    1.1357    0.0000 H   0  0  0  0  0  0  0  0  0  0  0  0
   14.7823    1.3529    0.0000 H   0  0  0  0  0  0  0  0  0  0  0  0
    2.6020   -4.2972    0.0000 H   0  0  0  0  0  0  0  0  0  0  0  0
    1.9132   -4.6984    0.0000 H   0  0  0  0  0  0  0  0  0  0  0  0
    1.4619   -5.4682    0.0000 H   0  0  0  0  0  0  0  0  0  0  0  0
    1.6921   -6.3143    0.0000 H   0  0  0  0  0  0  0  0  0  0  0  0
    2.5381   -6.0841    0.0000 H   0  0  0  0  0  0  0  0  0  0  0  0
  1 43  1  0  0  0  0
  2 43  1  0  0  0  0
  3 43  1  0  0  0  0
 18  4  1  6  0  0  0
  4 24  1  0  0  0  0
  5 24  1  0  0  0  0
  5 28  1  0  0  0  0
 19  6  1  6  0  0  0
  6 63  1  0  0  0  0
  7 27  1  0  0  0  0
  7 70  1  0  0  0  0
  8 30  1  0  0  0  0
  8 71  1  0  0  0  0
  9 31  1  0  0  0  0
  9 72  1  0  0  0  0
 10 29  2  0  0  0  0
 11 35  1  0  0  0  0
 11 46  1  0  0  0  0
 12 36  2  0  0  0  0
 13 37  2  0  0  0  0
 14 40  2  0  0  0  0
 15 41  1  0  0  0  0
 15 49  1  0  0  0  0
 16 46  2  0  0  0  0
 17 25  1  0  0  0  0
 17 40  1  0  0  0  0
 17 64  1  0  0  0  0
 18 20  1  0  0  0  0
 18 22  1  0  0  0  0
 18 52  1  0  0  0  0
 19 20  1  0  0  0  0
 19 21  1  0  0  0  0
 19 29  1  0  0  0  0
 20 53  1  0  0  0  0
 20 54  1  0  0  0  0
 21 23  1  0  0  0  0
 21 55  1  0  0  0  0
 21 56  1  0  0  0  0
 22 23  2  0  0  0  0
 22 30  1  0  0  0  0
 23 31  1  0  0  0  0
 24 26  1  0  0  0  0
 24 57  1  0  0  0  0
 25 26  1  0  0  0  0
 25 27  1  0  0  0  0
 25 58  1  0  0  0  0
 26 59  1  0  0  0  0
 26 60  1  0  0  0  0
 27 28  1  0  0  0  0
 27 61  1  0  0  0  0
 28 34  1  0  0  0  0
 28 62  1  0  0  0  0
 29 35  1  0  0  0  0
 30 32  2  0  0  0  0
 31 33  2  0  0  0  0
 32 33  1  0  0  0  0
 32 36  1  0  0  0  0
 33 37  1  0  0  0  0
 34 65  1  0  0  0  0
 34 66  1  0  0  0  0
 34 67  1  0  0  0  0
 35 68  1  0  0  0  0
 35 69  1  0  0  0  0
 36 38  1  0  0  0  0
 37 39  1  0  0  0  0
 38 39  2  0  0  0  0
 38 41  1  0  0  0  0
 39 42  1  0  0  0  0
 40 43  1  0  0  0  0
 41 44  2  0  0  0  0
 42 45  2  0  0  0  0
 42 73  1  0  0  0  0
 44 45  1  0  0  0  0
 44 74  1  0  0  0  0
 45 75  1  0  0  0  0
 46 47  1  0  0  0  0
 47 48  1  0  0  0  0
 47 76  1  0  0  0  0
 47 77  1  0  0  0  0
 48 50  1  0  0  0  0
 48 78  1  0  0  0  0
 48 79  1  0  0  0  0
 49 80  1  0  0  0  0
 49 81  1  0  0  0  0
 49 82  1  0  0  0  0
 50 51  1  0  0  0  0
 50 83  1  0  0  0  0
 50 84  1  0  0  0  0
 51 85  1  0  0  0  0
 51 86  1  0  0  0  0
 51 87  1  0  0  0  0
M  END
> <PUBCHEM_COMPOUND_CID>
41744

> <PUBCHEM_COMPOUND_CANONICALIZED>
1

> <PUBCHEM_CACTVS_COMPLEXITY>
1350

> <PUBCHEM_CACTVS_HBOND_ACCEPTOR>
16

> <PUBCHEM_CACTVS_HBOND_DONOR>
5

> <PUBCHEM_CACTVS_ROTATABLE_BOND>
11

> <PUBCHEM_CACTVS_SUBSKEYS>
AAADcfB+PYAAAAAAAAAAAAAAAAAAAAAAAAA0YMGCAAAAAADBQAAAHwAQCAAADHzxmBcyDoLABgCIAqHSGAICCAAkIAAIiIFOCMgfNzaGtR6mcWAn9hGfuYfL7PzOwQADAAAYAADCAAYQADAAAAAAAAAAAA==

> <PUBCHEM_IUPAC_OPENEYE_NAME>
[2-oxo-2-[(2S,4S)-2,5,12-trihydroxy-4-[5-hydroxy-6-methyl-4-[(2,2,2-trifluoroacetyl)amino]tetrahydropyran-2-yl]oxy-7-methoxy-6,11-dioxo-3,4-dihydro-1H-tetracen-2-yl]ethyl] pentanoate

> <PUBCHEM_IUPAC_CAS_NAME>
pentanoic acid [2-oxo-2-[(2S,4S)-2,5,12-trihydroxy-4-[[5-hydroxy-6-methyl-4-[(2,2,2-trifluoro-1-oxoethyl)amino]-2-oxanyl]oxy]-7-methoxy-6,11-dioxo-3,4-dihydro-1H-tetracen-2-yl]ethyl] ester

> <PUBCHEM_IUPAC_NAME>
[2-oxo-2-[(2S,4S)-2,5,12-trihydroxy-4-[5-hydroxy-6-methyl-4-[(2,2,2-trifluoroacetyl)amino]oxan-2-yl]oxy-7-methoxy-6,11-dioxo-3,4-dihydro-1H-tetracen-2-yl]ethyl] pentanoate

> <PUBCHEM_IUPAC_SYSTEMATIC_NAME>
[2-[(2S,4S)-7-methoxy-4-[6-methyl-5-oxidanyl-4-[2,2,2-tris(fluoranyl)ethanoylamino]oxan-2-yl]oxy-2,5,12-tris(oxidanyl)-6,11-bis(oxidanylidene)-3,4-dihydro-1H-tetracen-2-yl]-2-oxidanylidene-ethyl] pentanoate

> <PUBCHEM_IUPAC_TRADITIONAL_NAME>
valeric acid [2-keto-2-[(2S,4S)-2,5,12-trihydroxy-4-[5-hydroxy-6-methyl-4-[(2,2,2-trifluoroacetyl)amino]tetrahydropyran-2-yl]oxy-6,11-diketo-7-methoxy-3,4-dihydro-1H-tetracen-2-yl]ethyl] ester

> <PUBCHEM_IUPAC_INCHI>
InChI=1S/C34H36F3NO13/c1-4-5-9-21(40)49-13-20(39)33(47)11-16-24(19(12-33)51-22-10-17(27(41)14(2)50-22)38-32(46)34(35,36)37)31(45)26-25(29(16)43)28(42)15-7-6-8-18(48-3)23(15)30(26)44/h6-8,14,17,19,22,27,41,43,45,47H,4-5,9-13H2,1-3H3,(H,38,46)/t14?,17?,19-,22?,27?,33-/m0/s1

> <PUBCHEM_IUPAC_INCHIKEY>
ZOCKGBMQLCSHFP-ZQUOIQDWSA-N

> <PUBCHEM_XLOGP3>
4

> <PUBCHEM_EXACT_MASS>
723.213875

> <PUBCHEM_MOLECULAR_FORMULA>
C34H36F3NO13

> <PUBCHEM_MOLECULAR_WEIGHT>
723.64375

> <PUBCHEM_OPENEYE_CAN_SMILES>
CCCCC(=O)OCC(=O)C1(CC(C2=C(C3=C(C(=C2C1)O)C(=O)C4=C(C3=O)C(=CC=C4)OC)O)OC5CC(C(C(O5)C)O)NC(=O)C(F)(F)F)O

> <PUBCHEM_OPENEYE_ISO_SMILES>
CCCCC(=O)OCC(=O)[C@]1(C[C@@H](C2=C(C3=C(C(=C2C1)O)C(=O)C4=C(C3=O)C(=CC=C4)OC)O)OC5CC(C(C(O5)C)O)NC(=O)C(F)(F)F)O

> <PUBCHEM_CACTVS_TPSA>
215

> <PUBCHEM_MONOISOTOPIC_WEIGHT>
723.213875

> <PUBCHEM_TOTAL_CHARGE>
0

> <PUBCHEM_HEAVY_ATOM_COUNT>
51

> <PUBCHEM_ATOM_DEF_STEREO_COUNT>
2

> <PUBCHEM_ATOM_UDEF_STEREO_COUNT>
4

> <PUBCHEM_BOND_DEF_STEREO_COUNT>
0

> <PUBCHEM_BOND_UDEF_STEREO_COUNT>
0

> <PUBCHEM_ISOTOPIC_ATOM_COUNT>
0

> <PUBCHEM_COMPONENT_COUNT>
1

> <PUBCHEM_CACTVS_TAUTO_COUNT>
108

> <PUBCHEM_COORDINATE_TYPE>
1
5
255

> <PUBCHEM_BONDANNOTATIONS>
25  17  3
22  23  8
22  30  8
23  31  8
28  34  3
30  32  8
31  33  8
32  33  8
38  39  8
38  41  8
39  42  8
18  4  6
24  4  3
41  44  8
42  45  8
44  45  8
19  6  6
27  7  3

$$$$
