438204
  -OEChem-12171208242D

 30 30  0     1  0  0  0  0  0999 V2000
    7.1760   -1.2511    0.0000 Ag  0  3  0  0  0  0  0  0  0  0  0  0
    6.3100    0.2489    0.0000 S   0  0  0  0  0  0  0  0  0  0  0  0
    6.3100   -0.7511    0.0000 O   0  0  0  0  0  0  0  0  0  0  0  0
    5.8100    1.1149    0.0000 O   0  0  0  0  0  0  0  0  0  0  0  0
    7.1760    0.7489    0.0000 N   0  3  0  0  0  0  0  0  0  0  0  0
    8.0420   -0.7511    0.0000 N   0  5  0  0  0  0  0  0  0  0  0  0
    8.9360    0.7835    0.0000 N   0  0  0  0  0  0  0  0  0  0  0  0
    2.3100    0.2489    0.0000 N   0  0  0  0  0  0  0  0  0  0  0  0
    8.0420    0.2489    0.0000 C   0  0  3  0  0  0  0  0  0  0  0  0
    5.3100    0.2489    0.0000 C   0  0  0  0  0  0  0  0  0  0  0  0
    8.9360   -1.2858    0.0000 C   0  0  0  0  0  0  0  0  0  0  0  0
    4.8100    1.1149    0.0000 C   0  0  0  0  0  0  0  0  0  0  0  0
    4.8100   -0.6172    0.0000 C   0  0  0  0  0  0  0  0  0  0  0  0
    9.8421    0.2697    0.0000 C   0  0  0  0  0  0  0  0  0  0  0  0
    9.8421   -0.7720    0.0000 C   0  0  0  0  0  0  0  0  0  0  0  0
    3.8100    1.1149    0.0000 C   0  0  0  0  0  0  0  0  0  0  0  0
    3.8100   -0.6172    0.0000 C   0  0  0  0  0  0  0  0  0  0  0  0
    3.3100    0.2489    0.0000 C   0  0  0  0  0  0  0  0  0  0  0  0
    7.4860    1.2858    0.0000 H   0  0  0  0  0  0  0  0  0  0  0  0
    6.8660    1.2858    0.0000 H   0  0  0  0  0  0  0  0  0  0  0  0
    8.0355    1.0988    0.0000 H   0  0  0  0  0  0  0  0  0  0  0  0
    8.9288   -1.9058    0.0000 H   0  0  0  0  0  0  0  0  0  0  0  0
    5.1200    1.6518    0.0000 H   0  0  0  0  0  0  0  0  0  0  0  0
    5.1200   -1.1541    0.0000 H   0  0  0  0  0  0  0  0  0  0  0  0
   10.3778    0.5817    0.0000 H   0  0  0  0  0  0  0  0  0  0  0  0
   10.3778   -1.0840    0.0000 H   0  0  0  0  0  0  0  0  0  0  0  0
    3.5000    1.6518    0.0000 H   0  0  0  0  0  0  0  0  0  0  0  0
    3.5000   -1.1541    0.0000 H   0  0  0  0  0  0  0  0  0  0  0  0
    2.0000   -0.2881    0.0000 H   0  0  0  0  0  0  0  0  0  0  0  0
    2.0000    0.7858    0.0000 H   0  0  0  0  0  0  0  0  0  0  0  0
  2  3  2  0  0  0  0
  2  4  2  0  0  0  0
  2  5  1  0  0  0  0
  2 10  1  0  0  0  0
  5  9  1  0  0  0  0
  5 19  1  0  0  0  0
  5 20  1  0  0  0  0
  6  9  1  0  0  0  0
  6 11  1  0  0  0  0
  7  9  1  0  0  0  0
  7 14  2  0  0  0  0
  8 18  1  0  0  0  0
  8 29  1  0  0  0  0
  8 30  1  0  0  0  0
  9 21  1  0  0  0  0
 10 12  2  0  0  0  0
 10 13  1  0  0  0  0
 11 15  2  0  0  0  0
 11 22  1  0  0  0  0
 12 16  1  0  0  0  0
 12 23  1  0  0  0  0
 13 17  2  0  0  0  0
 13 24  1  0  0  0  0
 14 15  1  0  0  0  0
 14 25  1  0  0  0  0
 15 26  1  0  0  0  0
 16 18  2  0  0  0  0
 16 27  1  0  0  0  0
 17 18  1  0  0  0  0
 17 28  1  0  0  0  0
M  CHG  3   1   1   5   1   6  -1
M  END
> <PUBCHEM_COMPOUND_CID>
438204

> <PUBCHEM_COMPOUND_CANONICALIZED>
1

> <PUBCHEM_CACTVS_COMPLEXITY>
426

> <PUBCHEM_CACTVS_HBOND_ACCEPTOR>
5

> <PUBCHEM_CACTVS_HBOND_DONOR>
2

> <PUBCHEM_CACTVS_ROTATABLE_BOND>
1

> <PUBCHEM_CACTVS_SUBSKEYS>
AAADccBzsABAAAAAAAQAAAAAAAAAAAAAAAAwQIAAAAAAAACBAAAAHAQQQAAACAjBUAQxwYJAAAKgADRnRHDCABAgAgAIiJgYZJiIICKAkZGAIABgkAAIyAcQAAAAAAQAAAAAAAAACAAAAAAAAAAAAAAAAA==

> <PUBCHEM_IUPAC_OPENEYE_NAME>
silver;(4-aminophenyl)sulfonyl-(2H-pyrimidin-3-id-2-yl)ammonium

> <PUBCHEM_IUPAC_CAS_NAME>
silver;(4-aminophenyl)sulfonyl-(2H-pyrimidin-3-id-2-yl)ammonium

> <PUBCHEM_IUPAC_NAME>
silver;(4-aminophenyl)sulfonyl-(2H-pyrimidin-3-id-2-yl)azanium

> <PUBCHEM_IUPAC_SYSTEMATIC_NAME>
silver;(4-aminophenyl)sulfonyl-(2H-pyrimidin-3-id-2-yl)azanium

> <PUBCHEM_IUPAC_TRADITIONAL_NAME>
silver;2H-pyrimidin-3-id-2-yl(sulfanilyl)ammonium

> <PUBCHEM_IUPAC_INCHI>
InChI=1S/C10H11N4O2S.Ag/c11-8-2-4-9(5-3-8)17(15,16)14-10-12-6-1-7-13-10;/h1-7,10,14H,11H2;/q-1;+1/p+1

> <PUBCHEM_IUPAC_INCHIKEY>
FXGKTNYHWZBVKX-UHFFFAOYSA-O

> <PUBCHEM_EXACT_MASS>
358.973194

> <PUBCHEM_MOLECULAR_FORMULA>
C10H12AgN4O2S+

> <PUBCHEM_MOLECULAR_WEIGHT>
360.16108

> <PUBCHEM_OPENEYE_CAN_SMILES>
C1=C[N-]C(N=C1)[NH2+]S(=O)(=O)C2=CC=C(C=C2)N.[Ag+]

> <PUBCHEM_OPENEYE_ISO_SMILES>
C1=C[N-]C(N=C1)[NH2+]S(=O)(=O)C2=CC=C(C=C2)N.[Ag+]

> <PUBCHEM_CACTVS_TPSA>
98.5

> <PUBCHEM_MONOISOTOPIC_WEIGHT>
358.973194

> <PUBCHEM_TOTAL_CHARGE>
1

> <PUBCHEM_HEAVY_ATOM_COUNT>
18

> <PUBCHEM_ATOM_DEF_STEREO_COUNT>
0

> <PUBCHEM_ATOM_UDEF_STEREO_COUNT>
1

> <PUBCHEM_BOND_DEF_STEREO_COUNT>
0

> <PUBCHEM_BOND_UDEF_STEREO_COUNT>
0

> <PUBCHEM_ISOTOPIC_ATOM_COUNT>
0

> <PUBCHEM_COMPONENT_COUNT>
2

> <PUBCHEM_CACTVS_TAUTO_COUNT>
1

> <PUBCHEM_NONSTANDARDBOND>
1  3  6
1  6  6

> <PUBCHEM_COORDINATE_TYPE>
1
5
255

> <PUBCHEM_BONDANNOTATIONS>
10  12  8
10  13  8
12  16  8
13  17  8
16  18  8
17  18  8
9  21  3

$$$$
