4475485
  -OEChem-12171208252D

 63 64  0     1  0  0  0  0  0999 V2000
   12.0632   -3.0000    0.0000 S   0  0  0  0  0  0  0  0  0  0  0  0
   10.3312    4.0000    0.0000 F   0  0  0  0  0  0  0  0  0  0  0  0
    6.8671    1.0000    0.0000 O   0  0  0  0  0  0  0  0  0  0  0  0
    5.1350    1.0000    0.0000 O   0  0  0  0  0  0  0  0  0  0  0  0
    2.5369   -0.5000    0.0000 O   0  0  0  0  0  0  0  0  0  0  0  0
   13.0632   -3.0000    0.0000 O   0  0  0  0  0  0  0  0  0  0  0  0
   11.0632   -3.0000    0.0000 O   0  0  0  0  0  0  0  0  0  0  0  0
    3.4030    1.0000    0.0000 O   0  0  0  0  0  0  0  0  0  0  0  0
   10.3312   -2.0000    0.0000 N   0  0  0  0  0  0  0  0  0  0  0  0
   11.1972   -0.5000    0.0000 N   0  0  0  0  0  0  0  0  0  0  0  0
   12.0632   -2.0000    0.0000 N   0  0  0  0  0  0  0  0  0  0  0  0
    7.7331   -0.5000    0.0000 C   0  0  0  0  0  0  0  0  0  0  0  0
    6.8671    0.0000    0.0000 C   0  0  3  0  0  0  0  0  0  0  0  0
    8.5991    0.0000    0.0000 C   0  0  0  0  0  0  0  0  0  0  0  0
    6.0010   -0.5000    0.0000 C   0  0  0  0  0  0  0  0  0  0  0  0
    9.4651   -0.5000    0.0000 C   0  0  0  0  0  0  0  0  0  0  0  0
    9.4651   -1.5000    0.0000 C   0  0  0  0  0  0  0  0  0  0  0  0
    5.1350    0.0000    0.0000 C   0  0  3  0  0  0  0  0  0  0  0  0
    8.5991   -2.0000    0.0000 C   0  0  0  0  0  0  0  0  0  0  0  0
   10.3312    0.0000    0.0000 C   0  0  0  0  0  0  0  0  0  0  0  0
    4.2690   -0.5000    0.0000 C   0  0  0  0  0  0  0  0  0  0  0  0
    8.5991   -3.0000    0.0000 C   0  0  0  0  0  0  0  0  0  0  0  0
    7.7331   -1.5000    0.0000 C   0  0  0  0  0  0  0  0  0  0  0  0
   11.1972   -1.5000    0.0000 C   0  0  0  0  0  0  0  0  0  0  0  0
   10.3312    1.0000    0.0000 C   0  0  0  0  0  0  0  0  0  0  0  0
    3.4030    0.0000    0.0000 C   0  0  0  0  0  0  0  0  0  0  0  0
   11.1972    1.5000    0.0000 C   0  0  0  0  0  0  0  0  0  0  0  0
    9.4651    1.5000    0.0000 C   0  0  0  0  0  0  0  0  0  0  0  0
   12.9292   -1.5000    0.0000 C   0  0  0  0  0  0  0  0  0  0  0  0
   11.1972    2.5000    0.0000 C   0  0  0  0  0  0  0  0  0  0  0  0
    9.4651    2.5000    0.0000 C   0  0  0  0  0  0  0  0  0  0  0  0
   12.0632   -4.0000    0.0000 C   0  0  0  0  0  0  0  0  0  0  0  0
   10.3312    3.0000    0.0000 C   0  0  0  0  0  0  0  0  0  0  0  0
    7.3346   -0.9749    0.0000 H   0  0  0  0  0  0  0  0  0  0  0  0
    8.1316   -0.9749    0.0000 H   0  0  0  0  0  0  0  0  0  0  0  0
    6.3301    0.3100    0.0000 H   0  0  0  0  0  0  0  0  0  0  0  0
    8.9976    0.4749    0.0000 H   0  0  0  0  0  0  0  0  0  0  0  0
    8.2006    0.4749    0.0000 H   0  0  0  0  0  0  0  0  0  0  0  0
    5.6025   -0.9749    0.0000 H   0  0  0  0  0  0  0  0  0  0  0  0
    6.3996   -0.9749    0.0000 H   0  0  0  0  0  0  0  0  0  0  0  0
    5.6720    0.3100    0.0000 H   0  0  0  0  0  0  0  0  0  0  0  0
    8.5991   -1.3800    0.0000 H   0  0  0  0  0  0  0  0  0  0  0  0
    3.8705   -0.9749    0.0000 H   0  0  0  0  0  0  0  0  0  0  0  0
    4.6675   -0.9749    0.0000 H   0  0  0  0  0  0  0  0  0  0  0  0
    8.0431   -0.9631    0.0000 H   0  0  0  0  0  0  0  0  0  0  0  0
    7.1962   -1.1900    0.0000 H   0  0  0  0  0  0  0  0  0  0  0  0
    7.4231   -2.0369    0.0000 H   0  0  0  0  0  0  0  0  0  0  0  0
    7.9791   -3.0000    0.0000 H   0  0  0  0  0  0  0  0  0  0  0  0
    8.5991   -3.6200    0.0000 H   0  0  0  0  0  0  0  0  0  0  0  0
    9.2191   -3.0000    0.0000 H   0  0  0  0  0  0  0  0  0  0  0  0
    6.3301    1.3100    0.0000 H   0  0  0  0  0  0  0  0  0  0  0  0
    4.5981    1.3100    0.0000 H   0  0  0  0  0  0  0  0  0  0  0  0
   11.7341    1.1900    0.0000 H   0  0  0  0  0  0  0  0  0  0  0  0
    8.9282    1.1900    0.0000 H   0  0  0  0  0  0  0  0  0  0  0  0
   13.2392   -2.0369    0.0000 H   0  0  0  0  0  0  0  0  0  0  0  0
   13.4662   -1.1900    0.0000 H   0  0  0  0  0  0  0  0  0  0  0  0
   12.6192   -0.9631    0.0000 H   0  0  0  0  0  0  0  0  0  0  0  0
   11.7341    2.8100    0.0000 H   0  0  0  0  0  0  0  0  0  0  0  0
    8.9282    2.8100    0.0000 H   0  0  0  0  0  0  0  0  0  0  0  0
   11.4432   -4.0000    0.0000 H   0  0  0  0  0  0  0  0  0  0  0  0
   12.0632   -4.6200    0.0000 H   0  0  0  0  0  0  0  0  0  0  0  0
   12.6832   -4.0000    0.0000 H   0  0  0  0  0  0  0  0  0  0  0  0
    2.0000   -0.1900    0.0000 H   0  0  0  0  0  0  0  0  0  0  0  0
  1  6  2  0  0  0  0
  1  7  2  0  0  0  0
  1 11  1  0  0  0  0
  1 32  1  0  0  0  0
  2 33  1  0  0  0  0
  3 13  1  0  0  0  0
  3 51  1  0  0  0  0
  4 18  1  0  0  0  0
  4 52  1  0  0  0  0
  5 26  1  0  0  0  0
  5 63  1  0  0  0  0
  8 26  2  0  0  0  0
  9 17  2  0  0  0  0
  9 24  1  0  0  0  0
 10 20  1  0  0  0  0
 10 24  2  0  0  0  0
 11 24  1  0  0  0  0
 11 29  1  0  0  0  0
 12 13  1  0  0  0  0
 12 14  1  0  0  0  0
 12 34  1  0  0  0  0
 12 35  1  0  0  0  0
 13 15  1  0  0  0  0
 13 36  1  0  0  0  0
 14 16  1  0  0  0  0
 14 37  1  0  0  0  0
 14 38  1  0  0  0  0
 15 18  1  0  0  0  0
 15 39  1  0  0  0  0
 15 40  1  0  0  0  0
 16 17  1  0  0  0  0
 16 20  2  0  0  0  0
 17 19  1  0  0  0  0
 18 21  1  0  0  0  0
 18 41  1  0  0  0  0
 19 22  1  0  0  0  0
 19 23  1  0  0  0  0
 19 42  1  0  0  0  0
 20 25  1  0  0  0  0
 21 26  1  0  0  0  0
 21 43  1  0  0  0  0
 21 44  1  0  0  0  0
 22 48  1  0  0  0  0
 22 49  1  0  0  0  0
 22 50  1  0  0  0  0
 23 45  1  0  0  0  0
 23 46  1  0  0  0  0
 23 47  1  0  0  0  0
 25 27  2  0  0  0  0
 25 28  1  0  0  0  0
 27 30  1  0  0  0  0
 27 53  1  0  0  0  0
 28 31  2  0  0  0  0
 28 54  1  0  0  0  0
 29 55  1  0  0  0  0
 29 56  1  0  0  0  0
 29 57  1  0  0  0  0
 30 33  2  0  0  0  0
 30 58  1  0  0  0  0
 31 33  1  0  0  0  0
 31 59  1  0  0  0  0
 32 60  1  0  0  0  0
 32 61  1  0  0  0  0
 32 62  1  0  0  0  0
M  END
> <PUBCHEM_COMPOUND_CID>
4475485

> <PUBCHEM_COMPOUND_CANONICALIZED>
1

> <PUBCHEM_CACTVS_COMPLEXITY>
726

> <PUBCHEM_CACTVS_HBOND_ACCEPTOR>
10

> <PUBCHEM_CACTVS_HBOND_DONOR>
3

> <PUBCHEM_CACTVS_ROTATABLE_BOND>
11

> <PUBCHEM_CACTVS_SUBSKEYS>
AAADceB7OQBAAAAAAAAAAAAAAAAAAAAAAAA8QAAAAAAAAAABwAAAHwQASAAADRyhng6zmJYIEgKoAyTybHCCgCkhAKAJmCE4RJiIOLbA2dGEZAhtoAJIyCeY/OfOAAAAAAAAAAAAAAAAAAAAAAAAAAAAAA==

> <PUBCHEM_IUPAC_OPENEYE_NAME>
7-[4-(4-fluorophenyl)-6-isopropyl-2-[methyl(methylsulfonyl)amino]pyrimidin-5-yl]-3,5-dihydroxy-heptanoic acid

> <PUBCHEM_IUPAC_CAS_NAME>
7-[4-(4-fluorophenyl)-2-[methyl(methylsulfonyl)amino]-6-propan-2-yl-5-pyrimidinyl]-3,5-dihydroxyheptanoic acid

> <PUBCHEM_IUPAC_NAME>
7-[4-(4-fluorophenyl)-2-[methyl(methylsulfonyl)amino]-6-propan-2-ylpyrimidin-5-yl]-3,5-dihydroxyheptanoic acid

> <PUBCHEM_IUPAC_SYSTEMATIC_NAME>
7-[4-(4-fluorophenyl)-2-[methyl(methylsulfonyl)amino]-6-propan-2-yl-pyrimidin-5-yl]-3,5-bis(oxidanyl)heptanoic acid

> <PUBCHEM_IUPAC_TRADITIONAL_NAME>
7-[4-(4-fluorophenyl)-6-isopropyl-2-[mesyl(methyl)amino]pyrimidin-5-yl]-3,5-dihydroxy-enanthic acid

> <PUBCHEM_IUPAC_INCHI>
InChI=1S/C22H30FN3O6S/c1-13(2)20-18(10-9-16(27)11-17(28)12-19(29)30)21(14-5-7-15(23)8-6-14)25-22(24-20)26(3)33(4,31)32/h5-8,13,16-17,27-28H,9-12H2,1-4H3,(H,29,30)

> <PUBCHEM_IUPAC_INCHIKEY>
ZVPAUNJUMAQCNK-UHFFFAOYSA-N

> <PUBCHEM_XLOGP3_AA>
1.8

> <PUBCHEM_EXACT_MASS>
483.183935

> <PUBCHEM_MOLECULAR_FORMULA>
C22H30FN3O6S

> <PUBCHEM_MOLECULAR_WEIGHT>
483.553503

> <PUBCHEM_OPENEYE_CAN_SMILES>
CC(C)C1=NC(=NC(=C1CCC(CC(CC(=O)O)O)O)C2=CC=C(C=C2)F)N(C)S(=O)(=O)C

> <PUBCHEM_OPENEYE_ISO_SMILES>
CC(C)C1=NC(=NC(=C1CCC(CC(CC(=O)O)O)O)C2=CC=C(C=C2)F)N(C)S(=O)(=O)C

> <PUBCHEM_CACTVS_TPSA>
149

> <PUBCHEM_MONOISOTOPIC_WEIGHT>
483.183935

> <PUBCHEM_TOTAL_CHARGE>
0

> <PUBCHEM_HEAVY_ATOM_COUNT>
33

> <PUBCHEM_ATOM_DEF_STEREO_COUNT>
0

> <PUBCHEM_ATOM_UDEF_STEREO_COUNT>
2

> <PUBCHEM_BOND_DEF_STEREO_COUNT>
0

> <PUBCHEM_BOND_UDEF_STEREO_COUNT>
0

> <PUBCHEM_ISOTOPIC_ATOM_COUNT>
0

> <PUBCHEM_COMPONENT_COUNT>
1

> <PUBCHEM_CACTVS_TAUTO_COUNT>
3

> <PUBCHEM_COORDINATE_TYPE>
1
5
255

> <PUBCHEM_BONDANNOTATIONS>
10  20  8
10  24  8
16  17  8
16  20  8
25  27  8
25  28  8
27  30  8
28  31  8
13  3  3
30  33  8
31  33  8
18  4  3
9  17  8
9  24  8

$$$$
