4479097
  -OEChem-12171208252D

182187  0     1  0  0  0  0  0999 V2000
    9.4952    5.1607    0.0000 Co  0  0  0  0  0  0  0  0  0  0  0  0
    5.7014   -3.5677    0.0000 P   0  0  3  0  0  0  0  0  0  0  0  0
    8.9839    6.0201    0.0000 O   0  0  0  0  0  0  0  0  0  0  0  0
   12.7119    3.3116    0.0000 O   0  0  0  0  0  0  0  0  0  0  0  0
   11.4815    2.9828    0.0000 O   0  0  0  0  0  0  0  0  0  0  0  0
    8.8330   -0.2221    0.0000 O   0  0  0  0  0  0  0  0  0  0  0  0
   12.8864    9.4795    0.0000 O   0  0  0  0  0  0  0  0  0  0  0  0
   11.1780    9.5386    0.0000 O   0  0  0  0  0  0  0  0  0  0  0  0
    3.6618    3.3173    0.0000 O   0  0  0  0  0  0  0  0  0  0  0  0
    6.5104   -2.9800    0.0000 O   0  0  0  0  0  0  0  0  0  0  0  0
    6.7087   10.9291    0.0000 O   0  0  0  0  0  0  0  0  0  0  0  0
    4.8924   -4.1555    0.0000 O   0  0  0  0  0  0  0  0  0  0  0  0
    6.2892   -4.3768    0.0000 O   0  5  0  0  0  0  0  0  0  0  0  0
    5.1136   -2.7587    0.0000 O   0  0  0  0  0  0  0  0  0  0  0  0
    4.6605   -6.7327    0.0000 O   0  0  0  0  0  0  0  0  0  0  0  0
    6.7765   -5.2433    0.0000 O   0  0  0  0  0  0  0  0  0  0  0  0
    2.6064   -6.3544    0.0000 O   0  0  0  0  0  0  0  0  0  0  0  0
    9.0066    4.2882    0.0000 N   0  5  0  0  0  0  0  0  0  0  0  0
   10.4680    5.6209    0.0000 N   0  0  0  0  0  0  0  0  0  0  0  0
    7.5434    5.6209    0.0000 N   0  0  0  0  0  0  0  0  0  0  0  0
    8.9740    6.9536    0.0000 N   0  0  0  0  0  0  0  0  0  0  0  0
   14.3182    3.9597    0.0000 N   0  0  0  0  0  0  0  0  0  0  0  0
   11.6731    1.2614    0.0000 N   0  0  0  0  0  0  0  0  0  0  0  0
    7.1104   -0.4031    0.0000 N   0  0  0  0  0  0  0  0  0  0  0  0
   14.1015    8.2452    0.0000 N   0  0  0  0  0  0  0  0  0  0  0  0
   10.2897   11.0255    0.0000 N   0  0  0  0  0  0  0  0  0  0  0  0
    2.6131    4.6958    0.0000 N   0  0  0  0  0  0  0  0  0  0  0  0
    5.3136    9.9025    0.0000 N   0  0  0  0  0  0  0  0  0  0  0  0
    6.3241   -7.3714    0.0000 N   0  0  0  0  0  0  0  0  0  0  0  0
    7.7193   -8.1737    0.0000 N   0  0  0  0  0  0  0  0  0  0  0  0
   11.0529    4.9056    0.0000 C   0  0  3  0  0  0  0  0  0  0  0  0
    9.7869    3.7032    0.0000 C   0  0  3  0  0  0  0  0  0  0  0  0
   11.9636    5.1663    0.0000 C   0  0  3  0  0  0  0  0  0  0  0  0
    9.4937    2.7615    0.0000 C   0  0  3  0  0  0  0  0  0  0  0  0
    8.5194    2.7615    0.0000 C   0  0  3  0  0  0  0  0  0  0  0  0
   11.9636    6.1406    0.0000 C   0  0  3  0  0  0  0  0  0  0  0  0
    8.2261    3.6706    0.0000 C   0  0  0  0  0  0  0  0  0  0  0  0
   11.0203    6.4013    0.0000 C   0  0  0  0  0  0  0  0  0  0  0  0
   11.5491    4.0374    0.0000 C   0  0  0  0  0  0  0  0  0  0  0  0
   12.9538    5.0267    0.0000 C   0  0  0  0  0  0  0  0  0  0  0  0
   12.1368    4.1814    0.0000 C   0  0  0  0  0  0  0  0  0  0  0  0
   10.0865    1.9561    0.0000 C   0  0  0  0  0  0  0  0  0  0  0  0
    8.6239    1.7669    0.0000 C   0  0  0  0  0  0  0  0  0  0  0  0
   12.6763    6.8421    0.0000 C   0  0  0  0  0  0  0  0  0  0  0  0
    7.6059    2.3547    0.0000 C   0  0  0  0  0  0  0  0  0  0  0  0
    7.2844    3.9639    0.0000 C   0  0  0  0  0  0  0  0  0  0  0  0
   10.7287    7.3104    0.0000 C   0  0  0  0  0  0  0  0  0  0  0  0
    7.8149    1.1792    0.0000 C   0  0  0  0  0  0  0  0  0  0  0  0
   13.3280    4.0993    0.0000 C   0  0  0  0  0  0  0  0  0  0  0  0
   12.4250    7.8100    0.0000 C   0  0  0  0  0  0  0  0  0  0  0  0
    6.9912    4.8730    0.0000 C   0  0  0  0  0  0  0  0  0  0  0  0
   11.0804    2.0668    0.0000 C   0  0  0  0  0  0  0  0  0  0  0  0
    9.7869    7.6037    0.0000 C   0  0  0  0  0  0  0  0  0  0  0  0
    9.4611    8.5128    0.0000 C   0  0  3  0  0  0  0  0  0  0  0  0
    6.0494    5.1337    0.0000 C   0  0  3  0  0  0  0  0  0  0  0  0
    6.0494    6.1080    0.0000 C   0  0  0  0  0  0  0  0  0  0  0  0
    6.6137    3.2222    0.0000 C   0  0  0  0  0  0  0  0  0  0  0  0
    8.4868    8.5128    0.0000 C   0  0  3  0  0  0  0  0  0  0  0  0
   11.4636    7.9886    0.0000 C   0  0  0  0  0  0  0  0  0  0  0  0
    6.9912    6.3687    0.0000 C   0  0  0  0  0  0  0  0  0  0  0  0
    8.1935    7.5711    0.0000 C   0  0  0  0  0  0  0  0  0  0  0  0
    7.9194    0.1846    0.0000 C   0  0  0  0  0  0  0  0  0  0  0  0
    5.2536    4.5283    0.0000 C   0  0  0  0  0  0  0  0  0  0  0  0
    9.4462    9.5127    0.0000 C   0  0  0  0  0  0  0  0  0  0  0  0
   10.4075    8.8360    0.0000 C   0  0  0  0  0  0  0  0  0  0  0  0
   13.1377    8.5116    0.0000 C   0  0  0  0  0  0  0  0  0  0  0  0
    7.2519    7.3104    0.0000 C   0  0  0  0  0  0  0  0  0  0  0  0
    7.8941    9.3183    0.0000 C   0  0  0  0  0  0  0  0  0  0  0  0
    5.0497    6.1300    0.0000 C   0  0  0  0  0  0  0  0  0  0  0  0
    5.7614    7.0656    0.0000 C   0  0  0  0  0  0  0  0  0  0  0  0
    4.3313    4.9148    0.0000 C   0  0  0  0  0  0  0  0  0  0  0  0
    6.9002    9.2076    0.0000 C   0  0  0  0  0  0  0  0  0  0  0  0
   10.3046   10.0256    0.0000 C   0  0  0  0  0  0  0  0  0  0  0  0
    7.2149   -1.3977    0.0000 C   0  0  0  0  0  0  0  0  0  0  0  0
    3.5354    4.3093    0.0000 C   0  0  0  0  0  0  0  0  0  0  0  0
    6.3075   10.0131    0.0000 C   0  0  0  0  0  0  0  0  0  0  0  0
    6.4059   -1.9854    0.0000 C   0  0  3  0  0  0  0  0  0  0  0  0
    5.4924   -1.5787    0.0000 C   0  0  0  0  0  0  0  0  0  0  0  0
    4.9969   -5.1500    0.0000 C   0  0  3  0  0  0  0  0  0  0  0  0
    5.8629   -5.6500    0.0000 C   0  0  3  0  0  0  0  0  0  0  0  0
    4.2537   -5.8192    0.0000 C   0  0  3  0  0  0  0  0  0  0  0  0
    5.6550   -6.6282    0.0000 C   0  0  3  0  0  0  0  0  0  0  0  0
    3.2756   -5.6112    0.0000 C   0  0  0  0  0  0  0  0  0  0  0  0
    6.1166   -8.3435    0.0000 C   0  0  0  0  0  0  0  0  0  0  0  0
    7.3126   -7.2666    0.0000 C   0  0  0  0  0  0  0  0  0  0  0  0
    6.9835   -8.8420    0.0000 C   0  0  0  0  0  0  0  0  0  0  0  0
    5.2514   -8.8450    0.0000 C   0  0  0  0  0  0  0  0  0  0  0  0
    6.9852   -9.8420    0.0000 C   0  0  0  0  0  0  0  0  0  0  0  0
    5.2531   -9.8450    0.0000 C   0  0  0  0  0  0  0  0  0  0  0  0
    6.1200  -10.3435    0.0000 C   0  0  0  0  0  0  0  0  0  0  0  0
    4.3880  -10.3465    0.0000 C   0  0  0  0  0  0  0  0  0  0  0  0
    6.1217  -11.3435    0.0000 C   0  0  0  0  0  0  0  0  0  0  0  0
   10.5087    3.2542    0.0000 H   0  0  0  0  0  0  0  0  0  0  0  0
    9.1102    2.0029    0.0000 H   0  0  0  0  0  0  0  0  0  0  0  0
   12.7476    5.8122    0.0000 H   0  0  0  0  0  0  0  0  0  0  0  0
   11.0109    3.7298    0.0000 H   0  0  0  0  0  0  0  0  0  0  0  0
   11.8568    3.4991    0.0000 H   0  0  0  0  0  0  0  0  0  0  0  0
   12.0874    4.3451    0.0000 H   0  0  0  0  0  0  0  0  0  0  0  0
   13.5603    5.1553    0.0000 H   0  0  0  0  0  0  0  0  0  0  0  0
   12.9325    5.6463    0.0000 H   0  0  0  0  0  0  0  0  0  0  0  0
   11.5262    4.0741    0.0000 H   0  0  0  0  0  0  0  0  0  0  0  0
   12.2442    3.5708    0.0000 H   0  0  0  0  0  0  0  0  0  0  0  0
   12.7474    4.2888    0.0000 H   0  0  0  0  0  0  0  0  0  0  0  0
    9.5310    1.6809    0.0000 H   0  0  0  0  0  0  0  0  0  0  0  0
   10.2611    1.3612    0.0000 H   0  0  0  0  0  0  0  0  0  0  0  0
    8.8957    1.2097    0.0000 H   0  0  0  0  0  0  0  0  0  0  0  0
    9.2199    1.9378    0.0000 H   0  0  0  0  0  0  0  0  0  0  0  0
   13.0279    6.3315    0.0000 H   0  0  0  0  0  0  0  0  0  0  0  0
   13.2402    7.0997    0.0000 H   0  0  0  0  0  0  0  0  0  0  0  0
    7.3537    2.9211    0.0000 H   0  0  0  0  0  0  0  0  0  0  0  0
    7.0395    2.1026    0.0000 H   0  0  0  0  0  0  0  0  0  0  0  0
    7.8580    1.7883    0.0000 H   0  0  0  0  0  0  0  0  0  0  0  0
    7.5431    1.7364    0.0000 H   0  0  0  0  0  0  0  0  0  0  0  0
    7.2189    1.0083    0.0000 H   0  0  0  0  0  0  0  0  0  0  0  0
   12.0734    8.3207    0.0000 H   0  0  0  0  0  0  0  0  0  0  0  0
   11.8611    7.5524    0.0000 H   0  0  0  0  0  0  0  0  0  0  0  0
    6.2101    4.2990    0.0000 H   0  0  0  0  0  0  0  0  0  0  0  0
    6.1538    3.6380    0.0000 H   0  0  0  0  0  0  0  0  0  0  0  0
    6.1978    2.7623    0.0000 H   0  0  0  0  0  0  0  0  0  0  0  0
    7.0735    2.8063    0.0000 H   0  0  0  0  0  0  0  0  0  0  0  0
    7.6485    8.3722    0.0000 H   0  0  0  0  0  0  0  0  0  0  0  0
   11.8840    7.5330    0.0000 H   0  0  0  0  0  0  0  0  0  0  0  0
   11.9192    8.4091    0.0000 H   0  0  0  0  0  0  0  0  0  0  0  0
   11.0431    8.4442    0.0000 H   0  0  0  0  0  0  0  0  0  0  0  0
    4.9183    4.0067    0.0000 H   0  0  0  0  0  0  0  0  0  0  0  0
    5.7089    4.1075    0.0000 H   0  0  0  0  0  0  0  0  0  0  0  0
    9.2254   10.0921    0.0000 H   0  0  0  0  0  0  0  0  0  0  0  0
    8.8373    9.3959    0.0000 H   0  0  0  0  0  0  0  0  0  0  0  0
   10.6079    8.2493    0.0000 H   0  0  0  0  0  0  0  0  0  0  0  0
   10.9942    9.0364    0.0000 H   0  0  0  0  0  0  0  0  0  0  0  0
   10.2071    9.4228    0.0000 H   0  0  0  0  0  0  0  0  0  0  0  0
    6.8135    7.7488    0.0000 H   0  0  0  0  0  0  0  0  0  0  0  0
    9.5167    6.3371    0.0000 H   0  0  0  0  0  0  0  0  0  0  0  0
    8.3639    6.0119    0.0000 H   0  0  0  0  0  0  0  0  0  0  0  0
   14.7001    4.4481    0.0000 H   0  0  0  0  0  0  0  0  0  0  0  0
   14.5502    3.3847    0.0000 H   0  0  0  0  0  0  0  0  0  0  0  0
    8.4497    9.5934    0.0000 H   0  0  0  0  0  0  0  0  0  0  0  0
    7.7196    9.9132    0.0000 H   0  0  0  0  0  0  0  0  0  0  0  0
   11.4245    0.6935    0.0000 H   0  0  0  0  0  0  0  0  0  0  0  0
   12.2893    1.3300    0.0000 H   0  0  0  0  0  0  0  0  0  0  0  0
    5.0633    6.7499    0.0000 H   0  0  0  0  0  0  0  0  0  0  0  0
    4.4298    6.1437    0.0000 H   0  0  0  0  0  0  0  0  0  0  0  0
    5.0360    5.5102    0.0000 H   0  0  0  0  0  0  0  0  0  0  0  0
    6.3552    7.2442    0.0000 H   0  0  0  0  0  0  0  0  0  0  0  0
    5.5829    7.6593    0.0000 H   0  0  0  0  0  0  0  0  0  0  0  0
    5.1677    6.8871    0.0000 H   0  0  0  0  0  0  0  0  0  0  0  0
    4.6666    5.4363    0.0000 H   0  0  0  0  0  0  0  0  0  0  0  0
    3.8759    5.3355    0.0000 H   0  0  0  0  0  0  0  0  0  0  0  0
    6.5440   -0.1510    0.0000 H   0  0  0  0  0  0  0  0  0  0  0  0
    6.3446    8.9325    0.0000 H   0  0  0  0  0  0  0  0  0  0  0  0
    7.0748    8.6127    0.0000 H   0  0  0  0  0  0  0  0  0  0  0  0
   14.5434    8.6801    0.0000 H   0  0  0  0  0  0  0  0  0  0  0  0
   14.2573    7.6451    0.0000 H   0  0  0  0  0  0  0  0  0  0  0  0
    7.4867   -1.9549    0.0000 H   0  0  0  0  0  0  0  0  0  0  0  0
    7.8109   -1.2268    0.0000 H   0  0  0  0  0  0  0  0  0  0  0  0
   10.8219   11.3435    0.0000 H   0  0  0  0  0  0  0  0  0  0  0  0
    9.7482   11.3274    0.0000 H   0  0  0  0  0  0  0  0  0  0  0  0
    5.7182   -2.4851    0.0000 H   0  0  0  0  0  0  0  0  0  0  0  0
    2.1197    4.3204    0.0000 H   0  0  0  0  0  0  0  0  0  0  0  0
    2.5347    5.3108    0.0000 H   0  0  0  0  0  0  0  0  0  0  0  0
    5.7445   -1.0123    0.0000 H   0  0  0  0  0  0  0  0  0  0  0  0
    4.9260   -1.3265    0.0000 H   0  0  0  0  0  0  0  0  0  0  0  0
    5.2402   -2.1451    0.0000 H   0  0  0  0  0  0  0  0  0  0  0  0
    4.9462   10.4018    0.0000 H   0  0  0  0  0  0  0  0  0  0  0  0
    5.0649    9.3345    0.0000 H   0  0  0  0  0  0  0  0  0  0  0  0
    4.2034   -4.8454    0.0000 H   0  0  0  0  0  0  0  0  0  0  0  0
    6.5235   -6.1850    0.0000 H   0  0  0  0  0  0  0  0  0  0  0  0
    3.7188   -6.4797    0.0000 H   0  0  0  0  0  0  0  0  0  0  0  0
    5.3504   -7.4217    0.0000 H   0  0  0  0  0  0  0  0  0  0  0  0
    3.5078   -5.0364    0.0000 H   0  0  0  0  0  0  0  0  0  0  0  0
    2.7498   -5.2827    0.0000 H   0  0  0  0  0  0  0  0  0  0  0  0
    7.2780   -5.6078    0.0000 H   0  0  0  0  0  0  0  0  0  0  0  0
    7.6217   -6.7291    0.0000 H   0  0  0  0  0  0  0  0  0  0  0  0
    2.0000   -6.2255    0.0000 H   0  0  0  0  0  0  0  0  0  0  0  0
    4.7139   -8.5359    0.0000 H   0  0  0  0  0  0  0  0  0  0  0  0
    7.5226  -10.1511    0.0000 H   0  0  0  0  0  0  0  0  0  0  0  0
    4.0770   -9.8101    0.0000 H   0  0  0  0  0  0  0  0  0  0  0  0
    3.8516  -10.6574    0.0000 H   0  0  0  0  0  0  0  0  0  0  0  0
    4.6989  -10.8829    0.0000 H   0  0  0  0  0  0  0  0  0  0  0  0
    5.5017  -11.3446    0.0000 H   0  0  0  0  0  0  0  0  0  0  0  0
    6.1228  -11.9635    0.0000 H   0  0  0  0  0  0  0  0  0  0  0  0
    6.7417  -11.3425    0.0000 H   0  0  0  0  0  0  0  0  0  0  0  0
  2 10  1  0  0  0  0
  2 12  1  0  0  0  0
  2 13  1  0  0  0  0
  2 14  2  0  0  0  0
  3133  1  0  0  0  0
  3134  1  0  0  0  0
  4 49  2  0  0  0  0
  5 52  2  0  0  0  0
  6 62  2  0  0  0  0
  7 66  2  0  0  0  0
  8 73  2  0  0  0  0
  9 75  2  0  0  0  0
 10 77  1  0  0  0  0
 11 76  2  0  0  0  0
 12 79  1  0  0  0  0
 15 81  1  0  0  0  0
 15 82  1  0  0  0  0
 16 80  1  0  0  0  0
 16172  1  0  0  0  0
 17 83  1  0  0  0  0
 17174  1  0  0  0  0
 18 32  1  0  0  0  0
 18 37  1  0  0  0  0
 19 31  1  0  0  0  0
 19 38  2  0  0  0  0
 20 51  2  0  0  0  0
 20 60  1  0  0  0  0
 21 53  1  0  0  0  0
 21 61  2  0  0  0  0
 22 49  1  0  0  0  0
 22135  1  0  0  0  0
 22136  1  0  0  0  0
 23 52  1  0  0  0  0
 23139  1  0  0  0  0
 23140  1  0  0  0  0
 24 62  1  0  0  0  0
 24 74  1  0  0  0  0
 24149  1  0  0  0  0
 25 66  1  0  0  0  0
 25152  1  0  0  0  0
 25153  1  0  0  0  0
 26 73  1  0  0  0  0
 26156  1  0  0  0  0
 26157  1  0  0  0  0
 27 75  1  0  0  0  0
 27159  1  0  0  0  0
 27160  1  0  0  0  0
 28 76  1  0  0  0  0
 28164  1  0  0  0  0
 28165  1  0  0  0  0
 29 82  1  0  0  0  0
 29 84  1  0  0  0  0
 29 85  1  0  0  0  0
 30 85  2  0  0  0  0
 30 86  1  0  0  0  0
 31 32  1  0  0  0  0
 31 33  1  0  0  0  0
 31 39  1  0  0  0  0
 32 34  1  0  0  0  0
 32 93  1  0  0  0  0
 33 36  1  0  0  0  0
 33 40  1  0  0  0  0
 33 41  1  0  0  0  0
 34 35  1  0  0  0  0
 34 42  1  0  0  0  0
 34 94  1  0  0  0  0
 35 37  1  0  0  0  0
 35 43  1  0  0  0  0
 35 45  1  0  0  0  0
 36 38  1  0  0  0  0
 36 44  1  0  0  0  0
 36 95  1  0  0  0  0
 37 46  2  3  0  0  0
 38 47  1  0  0  0  0
 39 96  1  0  0  0  0
 39 97  1  0  0  0  0
 39 98  1  0  0  0  0
 40 49  1  0  0  0  0
 40 99  1  0  0  0  0
 40100  1  0  0  0  0
 41101  1  0  0  0  0
 41102  1  0  0  0  0
 41103  1  0  0  0  0
 42 52  1  0  0  0  0
 42104  1  0  0  0  0
 42105  1  0  0  0  0
 43 48  1  0  0  0  0
 43106  1  0  0  0  0
 43107  1  0  0  0  0
 44 50  1  0  0  0  0
 44108  1  0  0  0  0
 44109  1  0  0  0  0
 45110  1  0  0  0  0
 45111  1  0  0  0  0
 45112  1  0  0  0  0
 46 51  1  0  0  0  0
 46 57  1  0  0  0  0
 47 53  2  3  0  0  0
 47 59  1  0  0  0  0
 48 62  1  0  0  0  0
 48113  1  0  0  0  0
 48114  1  0  0  0  0
 50 66  1  0  0  0  0
 50115  1  0  0  0  0
 50116  1  0  0  0  0
 51 55  1  0  0  0  0
 53 54  1  0  0  0  0
 54 58  1  0  0  0  0
 54 64  1  0  0  0  0
 54 65  1  0  0  0  0
 55 56  1  0  0  0  0
 55 63  1  0  0  0  0
 55117  1  0  0  0  0
 56 60  1  0  0  0  0
 56 69  1  0  0  0  0
 56 70  1  0  0  0  0
 57118  1  0  0  0  0
 57119  1  0  0  0  0
 57120  1  0  0  0  0
 58 61  1  0  0  0  0
 58 68  1  0  0  0  0
 58121  1  0  0  0  0
 59122  1  0  0  0  0
 59123  1  0  0  0  0
 59124  1  0  0  0  0
 60 67  2  3  0  0  0
 61 67  1  0  0  0  0
 63 71  1  0  0  0  0
 63125  1  0  0  0  0
 63126  1  0  0  0  0
 64 73  1  0  0  0  0
 64127  1  0  0  0  0
 64128  1  0  0  0  0
 65129  1  0  0  0  0
 65130  1  0  0  0  0
 65131  1  0  0  0  0
 67132  1  0  0  0  0
 68 72  1  0  0  0  0
 68137  1  0  0  0  0
 68138  1  0  0  0  0
 69141  1  0  0  0  0
 69142  1  0  0  0  0
 69143  1  0  0  0  0
 70144  1  0  0  0  0
 70145  1  0  0  0  0
 70146  1  0  0  0  0
 71 75  1  0  0  0  0
 71147  1  0  0  0  0
 71148  1  0  0  0  0
 72 76  1  0  0  0  0
 72150  1  0  0  0  0
 72151  1  0  0  0  0
 74 77  1  0  0  0  0
 74154  1  0  0  0  0
 74155  1  0  0  0  0
 77 78  1  0  0  0  0
 77158  1  0  0  0  0
 78161  1  0  0  0  0
 78162  1  0  0  0  0
 78163  1  0  0  0  0
 79 80  1  0  0  0  0
 79 81  1  0  0  0  0
 79166  1  0  0  0  0
 80 82  1  0  0  0  0
 80167  1  0  0  0  0
 81 83  1  0  0  0  0
 81168  1  0  0  0  0
 82169  1  0  0  0  0
 83170  1  0  0  0  0
 83171  1  0  0  0  0
 84 86  2  0  0  0  0
 84 87  1  0  0  0  0
 85173  1  0  0  0  0
 86 88  1  0  0  0  0
 87 89  2  0  0  0  0
 87175  1  0  0  0  0
 88 90  2  0  0  0  0
 88176  1  0  0  0  0
 89 90  1  0  0  0  0
 89 91  1  0  0  0  0
 90 92  1  0  0  0  0
 91177  1  0  0  0  0
 91178  1  0  0  0  0
 91179  1  0  0  0  0
 92180  1  0  0  0  0
 92181  1  0  0  0  0
 92182  1  0  0  0  0
M  CHG  2  13  -1  18  -1
M  END
> <PUBCHEM_COMPOUND_CID>
4479097

> <PUBCHEM_COMPOUND_CANONICALIZED>
1

> <PUBCHEM_CACTVS_COMPLEXITY>
3150

> <PUBCHEM_CACTVS_HBOND_ACCEPTOR>
20

> <PUBCHEM_CACTVS_HBOND_DONOR>
10

> <PUBCHEM_CACTVS_ROTATABLE_BOND>
26

> <PUBCHEM_CACTVS_SUBSKEYS>
AAADcfB//AIAAAAQAAAAAAAAAAAAAWLEiBAwAAAAAAAAAFgB8AAAHgAQCCAAD7zhngY30LfMFxCoQyVzdICCgC0xEqAB2KE4dJiLeLLAmZGeYAhvlgLbyCf8ucKfiAAAQAAQACAQAACAACAAQAAAAAAAAA==

> <PUBCHEM_IUPAC_OPENEYE_NAME>
cobalt;[5-(5,6-dimethylbenzimidazol-1-yl)-4-hydroxy-2-(hydroxymethyl)tetrahydrofuran-3-yl] [1-methyl-2-[3-[2,13,18-tris(2-amino-2-oxo-ethyl)-7,12,17-tris(3-amino-3-oxo-propyl)-3,5,8,8,13,15,18,19-octamethyl-2,7,12,17-tetrahydro-1H-corrin-21-id-3-yl]propanoylamino]ethyl] phosphate;hydrate

> <PUBCHEM_IUPAC_CAS_NAME>
cobalt;[5-(5,6-dimethyl-1-benzimidazolyl)-4-hydroxy-2-(hydroxymethyl)-3-oxolanyl] 1-[[1-oxo-3-[2,13,18-tris(2-amino-2-oxoethyl)-7,12,17-tris(3-amino-3-oxopropyl)-3,5,8,8,13,15,18,19-octamethyl-2,7,12,17-tetrahydro-1H-corrin-21-id-3-yl]propyl]amino]propan-2-yl phosphate;hydrate

> <PUBCHEM_IUPAC_NAME>
cobalt;[5-(5,6-dimethylbenzimidazol-1-yl)-4-hydroxy-2-(hydroxymethyl)oxolan-3-yl] 1-[3-[2,13,18-tris(2-amino-2-oxoethyl)-7,12,17-tris(3-amino-3-oxopropyl)-3,5,8,8,13,15,18,19-octamethyl-2,7,12,17-tetrahydro-1H-corrin-21-id-3-yl]propanoylamino]propan-2-yl phosphate;hydrate

> <PUBCHEM_IUPAC_SYSTEMATIC_NAME>
cobalt;[5-(5,6-dimethylbenzimidazol-1-yl)-2-(hydroxymethyl)-4-oxidanyl-oxolan-3-yl] 1-[3-[2,13,18-tris(2-azanyl-2-oxidanylidene-ethyl)-7,12,17-tris(3-azanyl-3-oxidanylidene-propyl)-3,5,8,8,13,15,18,19-octamethyl-2,7,12,17-tetrahydro-1H-corrin-21-id-3-yl]propanoylamino]propan-2-yl phosphate;hydrate

> <PUBCHEM_IUPAC_TRADITIONAL_NAME>
cobalt;[5-(5,6-dimethylbenzimidazol-1-yl)-4-hydroxy-2-methylol-tetrahydrofuran-3-yl] [1-methyl-2-[3-[2,13,18-tris(2-amino-2-keto-ethyl)-7,12,17-tris(3-amino-3-keto-propyl)-3,5,8,8,13,15,18,19-octamethyl-2,7,12,17-tetrahydro-1H-corrin-21-id-3-yl]propanoylamino]ethyl] phosphate;hydrate

> <PUBCHEM_IUPAC_INCHI>
InChI=1S/C62H90N13O14P.Co.H2O/c1-29-20-39-40(21-30(29)2)75(28-70-39)57-52(84)53(41(27-76)87-57)89-90(85,86)88-31(3)26-69-49(83)18-19-59(8)37(22-46(66)80)56-62(11)61(10,25-48(68)82)36(14-17-45(65)79)51(74-62)33(5)55-60(9,24-47(67)81)34(12-15-43(63)77)38(71-55)23-42-58(6,7)35(13-16-44(64)78)50(72-42)32(4)54(59)73-56;;/h20-21,23,28,31,34-37,41,52-53,56-57,76,84H,12-19,22,24-27H2,1-11H3,(H15,63,64,65,66,67,68,69,71,72,73,74,77,78,79,80,81,82,83,85,86);;1H2/p-2

> <PUBCHEM_IUPAC_INCHIKEY>
ITFLMCXLENHUAD-UHFFFAOYSA-L

> <PUBCHEM_EXACT_MASS>
1346.574891

> <PUBCHEM_MOLECULAR_FORMULA>
C62H90CoN13O15P-2

> <PUBCHEM_MOLECULAR_WEIGHT>
1347.363057

> <PUBCHEM_OPENEYE_CAN_SMILES>
CC1=CC2=C(C=C1C)N(C=N2)C3C(C(C(O3)CO)OP(=O)([O-])OC(C)CNC(=O)CCC4(C(C5C6(C(C(C(=N6)C(=C7C(C(C(=N7)C=C8C(C(C(=N8)C(=C4[N-]5)C)CCC(=O)N)(C)C)CCC(=O)N)(C)CC(=O)N)C)CCC(=O)N)(C)CC(=O)N)C)CC(=O)N)C)O.O.[Co]

> <PUBCHEM_OPENEYE_ISO_SMILES>
CC1=CC2=C(C=C1C)N(C=N2)C3C(C(C(O3)CO)OP(=O)([O-])OC(C)CNC(=O)CCC4(C(C5C6(C(C(C(=N6)C(=C7C(C(C(=N7)C=C8C(C(C(=N8)C(=C4[N-]5)C)CCC(=O)N)(C)C)CCC(=O)N)(C)CC(=O)N)C)CCC(=O)N)(C)CC(=O)N)C)CC(=O)N)C)O.O.[Co]

> <PUBCHEM_CACTVS_TPSA>
453

> <PUBCHEM_MONOISOTOPIC_WEIGHT>
1346.574891

> <PUBCHEM_TOTAL_CHARGE>
-2

> <PUBCHEM_HEAVY_ATOM_COUNT>
92

> <PUBCHEM_ATOM_DEF_STEREO_COUNT>
0

> <PUBCHEM_ATOM_UDEF_STEREO_COUNT>
14

> <PUBCHEM_BOND_DEF_STEREO_COUNT>
0

> <PUBCHEM_BOND_UDEF_STEREO_COUNT>
3

> <PUBCHEM_ISOTOPIC_ATOM_COUNT>
0

> <PUBCHEM_COMPONENT_COUNT>
3

> <PUBCHEM_CACTVS_TAUTO_COUNT>
1000

> <PUBCHEM_NONSTANDARDBOND>
1  18  6
1  3  6

> <PUBCHEM_COORDINATE_TYPE>
1
5
255

> <PUBCHEM_BONDANNOTATIONS>
29  84  8
29  85  8
30  85  8
30  86  8
31  39  3
32  93  3
33  41  3
34  94  3
35  45  3
36  95  3
37  46  1
47  53  1
54  65  3
55  117  3
58  121  3
60  67  1
77  158  3
79  166  3
80  167  3
81  168  3
82  169  3
84  86  8
84  87  8
86  88  8
87  89  8
88  90  8
89  90  8

$$$$
