4630253
  -OEChem-12171208252D

 57 60  0     1  0  0  0  0  0999 V2000
    7.4149   -3.0268    0.0000 Cl  0  0  0  0  0  0  0  0  0  0  0  0
    8.0319    1.2610    0.0000 O   0  0  0  0  0  0  0  0  0  0  0  0
    4.7950    0.5046    0.0000 O   0  0  0  0  0  0  0  0  0  0  0  0
   10.0622    0.4874    0.0000 O   0  0  0  0  0  0  0  0  0  0  0  0
    9.8566    2.4768    0.0000 O   0  0  0  0  0  0  0  0  0  0  0  0
    2.0000   -3.0477    0.0000 O   0  0  0  0  0  0  0  0  0  0  0  0
    7.3931    0.0046    0.0000 C   0  0  3  0  0  0  0  0  0  0  0  0
    7.3931   -0.9954    0.0000 C   0  0  3  0  0  0  0  0  0  0  0  0
    6.5271   -1.4954    0.0000 C   0  0  3  0  0  0  0  0  0  0  0  0
    5.6610   -0.9954    0.0000 C   0  0  3  0  0  0  0  0  0  0  0  0
    8.3393    0.3094    0.0000 C   0  0  3  0  0  0  0  0  0  0  0  0
    8.3393   -1.3001    0.0000 C   0  0  0  0  0  0  0  0  0  0  0  0
    6.5271    0.5046    0.0000 C   0  0  0  0  0  0  0  0  0  0  0  0
    8.9229   -0.4954    0.0000 C   0  0  3  0  0  0  0  0  0  0  0  0
    5.6610    0.0046    0.0000 C   0  0  3  0  0  0  0  0  0  0  0  0
    4.7510   -1.5022    0.0000 C   0  0  3  0  0  0  0  0  0  0  0  0
    6.5431   -2.5369    0.0000 C   0  0  3  0  0  0  0  0  0  0  0  0
    7.3931    1.0046    0.0000 C   0  0  0  0  0  0  0  0  0  0  0  0
    5.6451   -3.0646    0.0000 C   0  0  0  0  0  0  0  0  0  0  0  0
    4.7430   -2.5438    0.0000 C   0  0  0  0  0  0  0  0  0  0  0  0
    9.1493    0.8957    0.0000 C   0  0  0  0  0  0  0  0  0  0  0  0
    9.9229   -0.4954    0.0000 C   0  0  0  0  0  0  0  0  0  0  0  0
    4.7587   -0.5022    0.0000 C   0  0  0  0  0  0  0  0  0  0  0  0
    3.8242   -0.9381    0.0000 C   0  0  0  0  0  0  0  0  0  0  0  0
    3.8076   -3.0935    0.0000 C   0  0  0  0  0  0  0  0  0  0  0  0
    9.0465    1.8904    0.0000 C   0  0  0  0  0  0  0  0  0  0  0  0
    2.8763   -1.4661    0.0000 C   0  0  0  0  0  0  0  0  0  0  0  0
    2.8680   -2.5510    0.0000 C   0  0  0  0  0  0  0  0  0  0  0  0
    7.4587   -1.6119    0.0000 H   0  0  0  0  0  0  0  0  0  0  0  0
    7.0664   -1.8012    0.0000 H   0  0  0  0  0  0  0  0  0  0  0  0
    6.1980   -0.6854    0.0000 H   0  0  0  0  0  0  0  0  0  0  0  0
    8.0883   -1.8670    0.0000 H   0  0  0  0  0  0  0  0  0  0  0  0
    8.8767   -1.6093    0.0000 H   0  0  0  0  0  0  0  0  0  0  0  0
    6.9256    0.9796    0.0000 H   0  0  0  0  0  0  0  0  0  0  0  0
    6.1285    0.9796    0.0000 H   0  0  0  0  0  0  0  0  0  0  0  0
    9.2046   -1.0477    0.0000 H   0  0  0  0  0  0  0  0  0  0  0  0
    5.6610    0.6246    0.0000 H   0  0  0  0  0  0  0  0  0  0  0  0
    6.5491   -3.1568    0.0000 H   0  0  0  0  0  0  0  0  0  0  0  0
    8.0131    1.0046    0.0000 H   0  0  0  0  0  0  0  0  0  0  0  0
    7.3931    1.6246    0.0000 H   0  0  0  0  0  0  0  0  0  0  0  0
    6.7731    1.0046    0.0000 H   0  0  0  0  0  0  0  0  0  0  0  0
    5.2478   -3.5406    0.0000 H   0  0  0  0  0  0  0  0  0  0  0  0
    6.0460   -3.5375    0.0000 H   0  0  0  0  0  0  0  0  0  0  0  0
    9.9229   -1.1154    0.0000 H   0  0  0  0  0  0  0  0  0  0  0  0
   10.5429   -0.4954    0.0000 H   0  0  0  0  0  0  0  0  0  0  0  0
    9.9229    0.1246    0.0000 H   0  0  0  0  0  0  0  0  0  0  0  0
    5.3787   -0.5070    0.0000 H   0  0  0  0  0  0  0  0  0  0  0  0
    4.7635    0.1177    0.0000 H   0  0  0  0  0  0  0  0  0  0  0  0
    4.1388   -0.4975    0.0000 H   0  0  0  0  0  0  0  0  0  0  0  0
    8.4476    1.7210    0.0000 H   0  0  0  0  0  0  0  0  0  0  0  0
    3.8361   -0.3183    0.0000 H   0  0  0  0  0  0  0  0  0  0  0  0
    4.7950    1.1246    0.0000 H   0  0  0  0  0  0  0  0  0  0  0  0
    3.8100   -3.7135    0.0000 H   0  0  0  0  0  0  0  0  0  0  0  0
    8.7757    2.4482    0.0000 H   0  0  0  0  0  0  0  0  0  0  0  0
    8.4502    1.7206    0.0000 H   0  0  0  0  0  0  0  0  0  0  0  0
    2.3430   -1.1499    0.0000 H   0  0  0  0  0  0  0  0  0  0  0  0
    9.7928    3.0935    0.0000 H   0  0  0  0  0  0  0  0  0  0  0  0
  1 17  1  0  0  0  0
  2 11  1  0  0  0  0
  2 50  1  0  0  0  0
  3 15  1  0  0  0  0
  3 52  1  0  0  0  0
  4 21  2  0  0  0  0
  5 26  1  0  0  0  0
  5 57  1  0  0  0  0
  6 28  2  0  0  0  0
  7  8  1  0  0  0  0
  7 11  1  0  0  0  0
  7 13  1  0  0  0  0
  7 18  1  0  0  0  0
  8  9  1  0  0  0  0
  8 12  1  0  0  0  0
  8 29  1  0  0  0  0
  9 10  1  0  0  0  0
  9 17  1  0  0  0  0
  9 30  1  0  0  0  0
 10 15  1  0  0  0  0
 10 16  1  0  0  0  0
 10 31  1  0  0  0  0
 11 14  1  0  0  0  0
 11 21  1  0  0  0  0
 12 14  1  0  0  0  0
 12 32  1  0  0  0  0
 12 33  1  0  0  0  0
 13 15  1  0  0  0  0
 13 34  1  0  0  0  0
 13 35  1  0  0  0  0
 14 22  1  0  0  0  0
 14 36  1  0  0  0  0
 15 37  1  0  0  0  0
 16 20  1  0  0  0  0
 16 23  1  0  0  0  0
 16 24  1  0  0  0  0
 17 19  1  0  0  0  0
 17 38  1  0  0  0  0
 18 39  1  0  0  0  0
 18 40  1  0  0  0  0
 18 41  1  0  0  0  0
 19 20  1  0  0  0  0
 19 42  1  0  0  0  0
 19 43  1  0  0  0  0
 20 25  2  0  0  0  0
 21 26  1  0  0  0  0
 22 44  1  0  0  0  0
 22 45  1  0  0  0  0
 22 46  1  0  0  0  0
 23 47  1  0  0  0  0
 23 48  1  0  0  0  0
 23 49  1  0  0  0  0
 24 27  2  0  0  0  0
 24 51  1  0  0  0  0
 25 28  1  0  0  0  0
 25 53  1  0  0  0  0
 26 54  1  0  0  0  0
 26 55  1  0  0  0  0
 27 28  1  0  0  0  0
 27 56  1  0  0  0  0
M  END
> <PUBCHEM_COMPOUND_CID>
4630253

> <PUBCHEM_COMPOUND_CANONICALIZED>
1

> <PUBCHEM_CACTVS_COMPLEXITY>
790

> <PUBCHEM_CACTVS_HBOND_ACCEPTOR>
5

> <PUBCHEM_CACTVS_HBOND_DONOR>
3

> <PUBCHEM_CACTVS_ROTATABLE_BOND>
2

> <PUBCHEM_CACTVS_SUBSKEYS>
AAADceB4OAAEAAAAAAAAAAAAAAAAAYAAAAAwYIAAAAAAAGDAAAAAGgIACAAAD1eggEICAAAAAgCIAqBSAAIAAAAgAAAICAFAAkgAEBIBAQAAQAAFgAAIAYPIzPDPgAAAAAAAAADIAAZAADIAAYAADAAAAA==

> <PUBCHEM_IUPAC_OPENEYE_NAME>
7-chloro-11,17-dihydroxy-17-(2-hydroxyacetyl)-10,13,16-trimethyl-7,8,9,11,12,14,15,16-octahydro-6H-cyclopenta[a]phenanthren-3-one

> <PUBCHEM_IUPAC_CAS_NAME>
7-chloro-11,17-dihydroxy-17-(2-hydroxy-1-oxoethyl)-10,13,16-trimethyl-7,8,9,11,12,14,15,16-octahydro-6H-cyclopenta[a]phenanthren-3-one

> <PUBCHEM_IUPAC_NAME>
7-chloro-11,17-dihydroxy-17-(2-hydroxyacetyl)-10,13,16-trimethyl-7,8,9,11,12,14,15,16-octahydro-6H-cyclopenta[a]phenanthren-3-one

> <PUBCHEM_IUPAC_SYSTEMATIC_NAME>
7-chloranyl-10,13,16-trimethyl-11,17-bis(oxidanyl)-17-(2-oxidanylethanoyl)-7,8,9,11,12,14,15,16-octahydro-6H-cyclopenta[a]phenanthren-3-one

> <PUBCHEM_IUPAC_TRADITIONAL_NAME>
7-chloro-17-glycoloyl-11,17-dihydroxy-10,13,16-trimethyl-7,8,9,11,12,14,15,16-octahydro-6H-cyclopenta[a]phenanthren-3-one

> <PUBCHEM_IUPAC_INCHI>
InChI=1S/C22H29ClO5/c1-11-6-14-18-15(23)8-12-7-13(25)4-5-20(12,2)19(18)16(26)9-21(14,3)22(11,28)17(27)10-24/h4-5,7,11,14-16,18-19,24,26,28H,6,8-10H2,1-3H3

> <PUBCHEM_IUPAC_INCHIKEY>
FJXOGVLKCZQRDN-UHFFFAOYSA-N

> <PUBCHEM_XLOGP3>
2.2

> <PUBCHEM_EXACT_MASS>
408.170352

> <PUBCHEM_MOLECULAR_FORMULA>
C22H29ClO5

> <PUBCHEM_MOLECULAR_WEIGHT>
408.91566

> <PUBCHEM_OPENEYE_CAN_SMILES>
CC1CC2C3C(CC4=CC(=O)C=CC4(C3C(CC2(C1(C(=O)CO)O)C)O)C)Cl

> <PUBCHEM_OPENEYE_ISO_SMILES>
CC1CC2C3C(CC4=CC(=O)C=CC4(C3C(CC2(C1(C(=O)CO)O)C)O)C)Cl

> <PUBCHEM_CACTVS_TPSA>
94.8

> <PUBCHEM_MONOISOTOPIC_WEIGHT>
408.170352

> <PUBCHEM_TOTAL_CHARGE>
0

> <PUBCHEM_HEAVY_ATOM_COUNT>
28

> <PUBCHEM_ATOM_DEF_STEREO_COUNT>
0

> <PUBCHEM_ATOM_UDEF_STEREO_COUNT>
9

> <PUBCHEM_BOND_DEF_STEREO_COUNT>
0

> <PUBCHEM_BOND_UDEF_STEREO_COUNT>
0

> <PUBCHEM_ISOTOPIC_ATOM_COUNT>
0

> <PUBCHEM_COMPONENT_COUNT>
1

> <PUBCHEM_CACTVS_TAUTO_COUNT>
9

> <PUBCHEM_COORDINATE_TYPE>
1
5
255

> <PUBCHEM_BONDANNOTATIONS>
17  1  3
10  15  3
14  22  3
16  23  3
11  2  3
15  3  3
7  18  3
8  12  3
9  17  3

$$$$
