5282226
  -OEChem-12171208252D

 70 71  0     1  0  0  0  0  0999 V2000
    7.6849    5.4571    0.0000 F   0  0  0  0  0  0  0  0  0  0  0  0
    8.6849    4.4571    0.0000 F   0  0  0  0  0  0  0  0  0  0  0  0
    6.6849    4.4571    0.0000 F   0  0  0  0  0  0  0  0  0  0  0  0
    5.3086   -4.8907    0.0000 O   0  0  0  0  0  0  0  0  0  0  0  0
    2.4608   -2.8216    0.0000 O   0  0  0  0  0  0  0  0  0  0  0  0
    4.2208    0.4571    0.0000 O   0  0  0  0  0  0  0  0  0  0  0  0
    5.9529    1.4571    0.0000 O   0  0  0  0  0  0  0  0  0  0  0  0
   11.2714   -2.9238    0.0000 O   0  0  0  0  0  0  0  0  0  0  0  0
   10.7362   -1.2766    0.0000 O   0  0  0  0  0  0  0  0  0  0  0  0
    5.0298   -3.1307    0.0000 C   0  0  2  0  0  0  0  0  0  0  0  0
    4.2208   -2.5429    0.0000 C   0  0  2  0  0  0  0  0  0  0  0  0
    4.7208   -4.0817    0.0000 C   0  0  2  0  0  0  0  0  0  0  0  0
    3.4118   -3.1307    0.0000 C   0  0  1  0  0  0  0  0  0  0  0  0
    3.7208   -4.0817    0.0000 C   0  0  0  0  0  0  0  0  0  0  0  0
    5.9809   -2.8216    0.0000 C   0  0  0  0  0  0  0  0  0  0  0  0
    4.2208   -1.5429    0.0000 C   0  0  0  0  0  0  0  0  0  0  0  0
    6.7240   -3.4908    0.0000 C   0  0  0  0  0  0  0  0  0  0  0  0
    5.0868   -1.0429    0.0000 C   0  0  0  0  0  0  0  0  0  0  0  0
    5.0868   -0.0429    0.0000 C   0  0  2  0  0  0  0  0  0  0  0  0
    7.6751   -3.1818    0.0000 C   0  0  0  0  0  0  0  0  0  0  0  0
    7.8830   -2.2036    0.0000 C   0  0  0  0  0  0  0  0  0  0  0  0
    5.9529    0.4571    0.0000 C   0  0  0  0  0  0  0  0  0  0  0  0
    8.8341   -1.8946    0.0000 C   0  0  0  0  0  0  0  0  0  0  0  0
    9.5772   -2.5637    0.0000 C   0  0  0  0  0  0  0  0  0  0  0  0
    6.8189    1.9571    0.0000 C   0  0  0  0  0  0  0  0  0  0  0  0
   10.5283   -2.2547    0.0000 C   0  0  0  0  0  0  0  0  0  0  0  0
    6.8189    2.9571    0.0000 C   0  0  0  0  0  0  0  0  0  0  0  0
    7.6849    1.4571    0.0000 C   0  0  0  0  0  0  0  0  0  0  0  0
   12.2225   -2.6148    0.0000 C   0  0  0  0  0  0  0  0  0  0  0  0
    7.6849    3.4571    0.0000 C   0  0  0  0  0  0  0  0  0  0  0  0
    8.5510    1.9571    0.0000 C   0  0  0  0  0  0  0  0  0  0  0  0
    8.5510    2.9571    0.0000 C   0  0  0  0  0  0  0  0  0  0  0  0
   12.9656   -3.2840    0.0000 C   0  0  0  0  0  0  0  0  0  0  0  0
   12.4304   -1.6367    0.0000 C   0  0  0  0  0  0  0  0  0  0  0  0
    7.6849    4.4571    0.0000 C   0  0  0  0  0  0  0  0  0  0  0  0
    5.1268   -2.5183    0.0000 H   0  0  0  0  0  0  0  0  0  0  0  0
    3.6684   -2.2614    0.0000 H   0  0  0  0  0  0  0  0  0  0  0  0
    5.3332   -3.9847    0.0000 H   0  0  0  0  0  0  0  0  0  0  0  0
    3.3148   -2.5183    0.0000 H   0  0  0  0  0  0  0  0  0  0  0  0
    3.1144   -4.2106    0.0000 H   0  0  0  0  0  0  0  0  0  0  0  0
    3.7856   -4.6983    0.0000 H   0  0  0  0  0  0  0  0  0  0  0  0
    6.4695   -2.4399    0.0000 H   0  0  0  0  0  0  0  0  0  0  0  0
    5.6898   -2.2742    0.0000 H   0  0  0  0  0  0  0  0  0  0  0  0
    3.6839   -1.2329    0.0000 H   0  0  0  0  0  0  0  0  0  0  0  0
    5.0564   -5.4571    0.0000 H   0  0  0  0  0  0  0  0  0  0  0  0
    2.0000   -3.2365    0.0000 H   0  0  0  0  0  0  0  0  0  0  0  0
    6.5951   -4.0972    0.0000 H   0  0  0  0  0  0  0  0  0  0  0  0
    5.6238   -1.3529    0.0000 H   0  0  0  0  0  0  0  0  0  0  0  0
    5.0868    0.5771    0.0000 H   0  0  0  0  0  0  0  0  0  0  0  0
    8.1358   -3.5966    0.0000 H   0  0  0  0  0  0  0  0  0  0  0  0
    7.7967   -1.5896    0.0000 H   0  0  0  0  0  0  0  0  0  0  0  0
    7.2634   -2.1820    0.0000 H   0  0  0  0  0  0  0  0  0  0  0  0
    6.1649   -0.1255    0.0000 H   0  0  0  0  0  0  0  0  0  0  0  0
    6.5635    0.5648    0.0000 H   0  0  0  0  0  0  0  0  0  0  0  0
    9.3226   -1.5129    0.0000 H   0  0  0  0  0  0  0  0  0  0  0  0
    8.5430   -1.3472    0.0000 H   0  0  0  0  0  0  0  0  0  0  0  0
    3.6839    0.1471    0.0000 H   0  0  0  0  0  0  0  0  0  0  0  0
    9.0886   -2.9454    0.0000 H   0  0  0  0  0  0  0  0  0  0  0  0
    9.8683   -3.1112    0.0000 H   0  0  0  0  0  0  0  0  0  0  0  0
    6.2820    3.2671    0.0000 H   0  0  0  0  0  0  0  0  0  0  0  0
    7.6849    0.8371    0.0000 H   0  0  0  0  0  0  0  0  0  0  0  0
   11.7617   -2.2000    0.0000 H   0  0  0  0  0  0  0  0  0  0  0  0
    9.0879    1.6471    0.0000 H   0  0  0  0  0  0  0  0  0  0  0  0
    9.0879    3.2671    0.0000 H   0  0  0  0  0  0  0  0  0  0  0  0
   12.5508   -3.7447    0.0000 H   0  0  0  0  0  0  0  0  0  0  0  0
   13.4264   -3.6988    0.0000 H   0  0  0  0  0  0  0  0  0  0  0  0
   13.3805   -2.8232    0.0000 H   0  0  0  0  0  0  0  0  0  0  0  0
   13.0368   -1.7656    0.0000 H   0  0  0  0  0  0  0  0  0  0  0  0
   12.5593   -1.0302    0.0000 H   0  0  0  0  0  0  0  0  0  0  0  0
   11.8239   -1.5078    0.0000 H   0  0  0  0  0  0  0  0  0  0  0  0
  1 35  1  0  0  0  0
  2 35  1  0  0  0  0
  3 35  1  0  0  0  0
 12  4  1  1  0  0  0
  4 45  1  0  0  0  0
 13  5  1  1  0  0  0
  5 46  1  0  0  0  0
 19  6  1  1  0  0  0
  6 57  1  0  0  0  0
  7 22  1  0  0  0  0
  7 25  1  0  0  0  0
  8 26  1  0  0  0  0
  8 29  1  0  0  0  0
  9 26  2  0  0  0  0
 10 11  1  0  0  0  0
 10 12  1  0  0  0  0
 10 15  1  1  0  0  0
 10 36  1  0  0  0  0
 11 13  1  0  0  0  0
 11 16  1  6  0  0  0
 11 37  1  0  0  0  0
 12 14  1  0  0  0  0
 12 38  1  0  0  0  0
 13 14  1  0  0  0  0
 13 39  1  0  0  0  0
 14 40  1  0  0  0  0
 14 41  1  0  0  0  0
 15 17  1  0  0  0  0
 15 42  1  0  0  0  0
 15 43  1  0  0  0  0
 16 18  2  0  0  0  0
 16 44  1  0  0  0  0
 17 20  2  0  0  0  0
 17 47  1  0  0  0  0
 18 19  1  0  0  0  0
 18 48  1  0  0  0  0
 19 22  1  0  0  0  0
 19 49  1  0  0  0  0
 20 21  1  0  0  0  0
 20 50  1  0  0  0  0
 21 23  1  0  0  0  0
 21 51  1  0  0  0  0
 21 52  1  0  0  0  0
 22 53  1  0  0  0  0
 22 54  1  0  0  0  0
 23 24  1  0  0  0  0
 23 55  1  0  0  0  0
 23 56  1  0  0  0  0
 24 26  1  0  0  0  0
 24 58  1  0  0  0  0
 24 59  1  0  0  0  0
 25 27  1  0  0  0  0
 25 28  2  0  0  0  0
 27 30  2  0  0  0  0
 27 60  1  0  0  0  0
 28 31  1  0  0  0  0
 28 61  1  0  0  0  0
 29 33  1  0  0  0  0
 29 34  1  0  0  0  0
 29 62  1  0  0  0  0
 30 32  1  0  0  0  0
 30 35  1  0  0  0  0
 31 32  2  0  0  0  0
 31 63  1  0  0  0  0
 32 64  1  0  0  0  0
 33 65  1  0  0  0  0
 33 66  1  0  0  0  0
 33 67  1  0  0  0  0
 34 68  1  0  0  0  0
 34 69  1  0  0  0  0
 34 70  1  0  0  0  0
M  END
> <PUBCHEM_COMPOUND_CID>
5282226

> <PUBCHEM_COMPOUND_CANONICALIZED>
1

> <PUBCHEM_CACTVS_COMPLEXITY>
693

> <PUBCHEM_CACTVS_HBOND_ACCEPTOR>
9

> <PUBCHEM_CACTVS_HBOND_DONOR>
3

> <PUBCHEM_CACTVS_ROTATABLE_BOND>
13

> <PUBCHEM_CACTVS_SUBSKEYS>
AAADcfB4OYAAAAAAAAAAAAAAAAAAAYAAAAAwAAAAAAAAAAABAAAAGwAACAAADRSgmBIyDoAABgCIAiDSCAACCAAgIAAIiAEGCIgNNjKEMRqCeCClwBELuAfIwLAOgAABAAAAAAAAAAIAAAAAAIQADAAAAA==

> <PUBCHEM_IUPAC_OPENEYE_NAME>
isopropyl (Z)-7-[(1R,2R,3R,5S)-3,5-dihydroxy-2-[(E,3R)-3-hydroxy-4-[3-(trifluoromethyl)phenoxy]but-1-enyl]cyclopentyl]hept-5-enoate

> <PUBCHEM_IUPAC_CAS_NAME>
(Z)-7-[(1R,2R,3R,5S)-3,5-dihydroxy-2-[(E,3R)-3-hydroxy-4-[3-(trifluoromethyl)phenoxy]but-1-enyl]cyclopentyl]-5-heptenoic acid propan-2-yl ester

> <PUBCHEM_IUPAC_NAME>
propan-2-yl (Z)-7-[(1R,2R,3R,5S)-3,5-dihydroxy-2-[(E,3R)-3-hydroxy-4-[3-(trifluoromethyl)phenoxy]but-1-enyl]cyclopentyl]hept-5-enoate

> <PUBCHEM_IUPAC_SYSTEMATIC_NAME>
propan-2-yl (Z)-7-[(1R,2R,3R,5S)-3,5-bis(oxidanyl)-2-[(E,3R)-3-oxidanyl-4-[3-(trifluoromethyl)phenoxy]but-1-enyl]cyclopentyl]hept-5-enoate

> <PUBCHEM_IUPAC_TRADITIONAL_NAME>
(Z)-7-[(1R,2R,3R,5S)-3,5-dihydroxy-2-[(E,3R)-3-hydroxy-4-[3-(trifluoromethyl)phenoxy]but-1-enyl]cyclopentyl]hept-5-enoic acid isopropyl ester

> <PUBCHEM_IUPAC_INCHI>
InChI=1S/C26H35F3O6/c1-17(2)35-25(33)11-6-4-3-5-10-21-22(24(32)15-23(21)31)13-12-19(30)16-34-20-9-7-8-18(14-20)26(27,28)29/h3,5,7-9,12-14,17,19,21-24,30-32H,4,6,10-11,15-16H2,1-2H3/b5-3-,13-12+/t19-,21-,22-,23+,24-/m1/s1

> <PUBCHEM_IUPAC_INCHIKEY>
MKPLKVHSHYCHOC-AHTXBMBWSA-N

> <PUBCHEM_XLOGP3_AA>
4.1

> <PUBCHEM_EXACT_MASS>
500.238573

> <PUBCHEM_MOLECULAR_FORMULA>
C26H35F3O6

> <PUBCHEM_MOLECULAR_WEIGHT>
500.54771

> <PUBCHEM_OPENEYE_CAN_SMILES>
CC(C)OC(=O)CCCC=CCC1C(CC(C1C=CC(COC2=CC=CC(=C2)C(F)(F)F)O)O)O

> <PUBCHEM_OPENEYE_ISO_SMILES>
CC(C)OC(=O)CCC/C=C\C[C@H]1[C@H](C[C@H]([C@@H]1/C=C/[C@H](COC2=CC=CC(=C2)C(F)(F)F)O)O)O

> <PUBCHEM_CACTVS_TPSA>
96.2

> <PUBCHEM_MONOISOTOPIC_WEIGHT>
500.238573

> <PUBCHEM_TOTAL_CHARGE>
0

> <PUBCHEM_HEAVY_ATOM_COUNT>
35

> <PUBCHEM_ATOM_DEF_STEREO_COUNT>
5

> <PUBCHEM_ATOM_UDEF_STEREO_COUNT>
0

> <PUBCHEM_BOND_DEF_STEREO_COUNT>
2

> <PUBCHEM_BOND_UDEF_STEREO_COUNT>
0

> <PUBCHEM_ISOTOPIC_ATOM_COUNT>
0

> <PUBCHEM_COMPONENT_COUNT>
1

> <PUBCHEM_CACTVS_TAUTO_COUNT>
1

> <PUBCHEM_COORDINATE_TYPE>
1
5
255

> <PUBCHEM_BONDANNOTATIONS>
10  15  5
11  16  6
25  27  8
25  28  8
27  30  8
28  31  8
30  32  8
31  32  8
12  4  5
13  5  5
19  6  5

$$$$
