5311082
  -OEChem-12171208252D

102106  0     1  0  0  0  0  0999 V2000
   11.2552    1.5975    0.0000 S   0  0  0  0  0  0  0  0  0  0  0  0
   11.0816    2.5823    0.0000 S   0  0  0  0  0  0  0  0  0  0  0  0
    6.4962   -1.1304    0.0000 O   0  0  0  0  0  0  0  0  0  0  0  0
   10.4105   -2.1938    0.0000 O   0  0  0  0  0  0  0  0  0  0  0  0
    7.9361    0.3894    0.0000 O   0  0  0  0  0  0  0  0  0  0  0  0
    4.7102   -4.1117    0.0000 O   0  0  0  0  0  0  0  0  0  0  0  0
    7.6834    3.0823    0.0000 O   0  0  0  0  0  0  0  0  0  0  0  0
    5.7920    1.8141    0.0000 O   0  0  0  0  0  0  0  0  0  0  0  0
    4.3126   -0.6566    0.0000 O   0  0  0  0  0  0  0  0  0  0  0  0
    2.3985   -2.8247    0.0000 O   0  0  0  0  0  0  0  0  0  0  0  0
    3.7254   -3.9381    0.0000 O   0  0  0  0  0  0  0  0  0  0  0  0
    7.8889   -1.3760    0.0000 N   0  0  0  0  0  0  0  0  0  0  0  0
   10.1575   -0.5503    0.0000 N   0  0  0  0  0  0  0  0  0  0  0  0
    6.3378   -3.5193    0.0000 N   0  0  0  0  0  0  0  0  0  0  0  0
    8.3758    1.5975    0.0000 N   0  0  0  0  0  0  0  0  0  0  0  0
    7.7856   -5.9321    0.0000 N   0  0  0  0  0  0  0  0  0  0  0  0
    5.6537   -1.6399    0.0000 N   0  0  0  0  0  0  0  0  0  0  0  0
    6.7305    0.2932    0.0000 N   0  0  0  0  0  0  0  0  0  0  0  0
    4.4012    4.9430    0.0000 N   0  0  0  0  0  0  0  0  0  0  0  0
    3.0764    6.0588    0.0000 N   0  0  0  0  0  0  0  0  0  0  0  0
    2.7725    4.3537    0.0000 N   0  0  0  0  0  0  0  0  0  0  0  0
    8.7952   -1.7986    0.0000 C   0  0  1  0  0  0  0  0  0  0  0  0
    9.4713   -1.0698    0.0000 C   0  0  0  0  0  0  0  0  0  0  0  0
    8.9886   -0.2008    0.0000 C   0  0  0  0  0  0  0  0  0  0  0  0
    8.0126   -0.3896    0.0000 C   0  0  0  0  0  0  0  0  0  0  0  0
    7.0698   -1.9495    0.0000 C   0  0  0  0  0  0  0  0  0  0  0  0
    9.7349   -1.4566    0.0000 C   0  0  0  0  0  0  0  0  0  0  0  0
    7.1569   -2.9457    0.0000 C   0  0  2  0  0  0  0  0  0  0  0  0
    8.0632   -3.3684    0.0000 C   0  0  0  0  0  0  0  0  0  0  0  0
    9.8155    0.3894    0.0000 C   0  0  2  0  0  0  0  0  0  0  0  0
    8.1504   -4.3646    0.0000 C   0  0  0  0  0  0  0  0  0  0  0  0
    7.3910    1.7711    0.0000 C   0  0  1  0  0  0  0  0  0  0  0  0
    8.8758    0.7315    0.0000 C   0  0  0  0  0  0  0  0  0  0  0  0
   10.7552    0.7315    0.0000 C   0  0  0  0  0  0  0  0  0  0  0  0
    7.0507    2.7114    0.0000 C   0  0  0  0  0  0  0  0  0  0  0  0
    5.3530   -3.3457    0.0000 C   0  0  0  0  0  0  0  0  0  0  0  0
    9.0029   -4.8758    0.0000 C   0  0  0  0  0  0  0  0  0  0  0  0
    5.0109   -2.4060    0.0000 C   0  0  2  0  0  0  0  0  0  0  0  0
    7.3996   -5.0161    0.0000 C   0  0  0  0  0  0  0  0  0  0  0  0
    6.0662    2.8869    0.0000 C   0  0  0  0  0  0  0  0  0  0  0  0
    8.7763   -5.8498    0.0000 C   0  0  0  0  0  0  0  0  0  0  0  0
    8.5495    2.5823    0.0000 C   0  0  0  0  0  0  0  0  0  0  0  0
    6.6434    1.2894    0.0000 C   0  0  0  0  0  0  0  0  0  0  0  0
    9.3155    3.2251    0.0000 C   0  0  0  0  0  0  0  0  0  0  0  0
    5.7260    3.8272    0.0000 C   0  0  0  0  0  0  0  0  0  0  0  0
    4.0261   -2.2323    0.0000 C   0  0  0  0  0  0  0  0  0  0  0  0
    9.9597   -4.5851    0.0000 C   0  0  0  0  0  0  0  0  0  0  0  0
   10.3155    3.2251    0.0000 C   0  0  0  0  0  0  0  0  0  0  0  0
    9.5064   -6.5330    0.0000 C   0  0  0  0  0  0  0  0  0  0  0  0
    5.7343    0.2061    0.0000 C   0  0  0  0  0  0  0  0  0  0  0  0
    5.3117   -0.7002    0.0000 C   0  0  0  0  0  0  0  0  0  0  0  0
    4.7415    4.0027    0.0000 C   0  0  0  0  0  0  0  0  0  0  0  0
   10.6899   -5.2684    0.0000 C   0  0  0  0  0  0  0  0  0  0  0  0
   10.4633   -6.2423    0.0000 C   0  0  0  0  0  0  0  0  0  0  0  0
    3.3833   -2.9984    0.0000 C   0  0  0  0  0  0  0  0  0  0  0  0
    3.4167    5.1185    0.0000 C   0  0  0  0  0  0  0  0  0  0  0  0
    8.9585   -2.6328    0.0000 H   0  0  0  0  0  0  0  0  0  0  0  0
    9.8790   -1.5369    0.0000 H   0  0  0  0  0  0  0  0  0  0  0  0
    9.9786   -0.7135    0.0000 H   0  0  0  0  0  0  0  0  0  0  0  0
    9.5592    0.0416    0.0000 H   0  0  0  0  0  0  0  0  0  0  0  0
    8.8075    0.3922    0.0000 H   0  0  0  0  0  0  0  0  0  0  0  0
    7.9595    0.2281    0.0000 H   0  0  0  0  0  0  0  0  0  0  0  0
    7.3927   -0.3775    0.0000 H   0  0  0  0  0  0  0  0  0  0  0  0
    7.2110   -3.5634    0.0000 H   0  0  0  0  0  0  0  0  0  0  0  0
    8.6809   -3.4224    0.0000 H   0  0  0  0  0  0  0  0  0  0  0  0
    8.2237   -2.7695    0.0000 H   0  0  0  0  0  0  0  0  0  0  0  0
   10.7769   -0.5773    0.0000 H   0  0  0  0  0  0  0  0  0  0  0  0
    9.5248    1.1882    0.0000 H   0  0  0  0  0  0  0  0  0  0  0  0
    6.4720   -4.1246    0.0000 H   0  0  0  0  0  0  0  0  0  0  0  0
    7.7900    2.2457    0.0000 H   0  0  0  0  0  0  0  0  0  0  0  0
   10.7912    0.1125    0.0000 H   0  0  0  0  0  0  0  0  0  0  0  0
   11.3585    0.5885    0.0000 H   0  0  0  0  0  0  0  0  0  0  0  0
    7.6615    2.8180    0.0000 H   0  0  0  0  0  0  0  0  0  0  0  0
    7.0519    3.3314    0.0000 H   0  0  0  0  0  0  0  0  0  0  0  0
    4.7989   -1.8234    0.0000 H   0  0  0  0  0  0  0  0  0  0  0  0
    6.7957   -4.8756    0.0000 H   0  0  0  0  0  0  0  0  0  0  0  0
    5.4555    2.7804    0.0000 H   0  0  0  0  0  0  0  0  0  0  0  0
    6.0651    2.2669    0.0000 H   0  0  0  0  0  0  0  0  0  0  0  0
    7.4644   -6.4625    0.0000 H   0  0  0  0  0  0  0  0  0  0  0  0
    9.4933    3.8190    0.0000 H   0  0  0  0  0  0  0  0  0  0  0  0
    8.7975    3.5658    0.0000 H   0  0  0  0  0  0  0  0  0  0  0  0
    6.3367    3.9338    0.0000 H   0  0  0  0  0  0  0  0  0  0  0  0
    5.7271    4.4473    0.0000 H   0  0  0  0  0  0  0  0  0  0  0  0
    4.2382   -1.6497    0.0000 H   0  0  0  0  0  0  0  0  0  0  0  0
    3.4892   -1.9223    0.0000 H   0  0  0  0  0  0  0  0  0  0  0  0
   10.1002   -3.9812    0.0000 H   0  0  0  0  0  0  0  0  0  0  0  0
    6.2643   -1.7476    0.0000 H   0  0  0  0  0  0  0  0  0  0  0  0
    7.2055   -0.1053    0.0000 H   0  0  0  0  0  0  0  0  0  0  0  0
   10.8335    3.5658    0.0000 H   0  0  0  0  0  0  0  0  0  0  0  0
   10.1377    3.8190    0.0000 H   0  0  0  0  0  0  0  0  0  0  0  0
    9.3659   -7.1369    0.0000 H   0  0  0  0  0  0  0  0  0  0  0  0
    5.7884    0.8237    0.0000 H   0  0  0  0  0  0  0  0  0  0  0  0
    5.1354    0.3665    0.0000 H   0  0  0  0  0  0  0  0  0  0  0  0
    4.1307    3.8962    0.0000 H   0  0  0  0  0  0  0  0  0  0  0  0
    4.7403    3.3827    0.0000 H   0  0  0  0  0  0  0  0  0  0  0  0
   11.2831   -5.0881    0.0000 H   0  0  0  0  0  0  0  0  0  0  0  0
   10.9160   -6.6660    0.0000 H   0  0  0  0  0  0  0  0  0  0  0  0
    2.0000   -3.2997    0.0000 H   0  0  0  0  0  0  0  0  0  0  0  0
    2.1621    4.4624    0.0000 H   0  0  0  0  0  0  0  0  0  0  0  0
    2.9835    3.7707    0.0000 H   0  0  0  0  0  0  0  0  0  0  0  0
    2.4660    6.1676    0.0000 H   0  0  0  0  0  0  0  0  0  0  0  0
    3.4758    6.5330    0.0000 H   0  0  0  0  0  0  0  0  0  0  0  0
  1  2  1  0  0  0  0
  1 34  1  0  0  0  0
  2 48  1  0  0  0  0
  3 26  2  0  0  0  0
  4 27  2  0  0  0  0
  5 33  2  0  0  0  0
  6 36  2  0  0  0  0
  7 42  2  0  0  0  0
  8 43  2  0  0  0  0
  9 51  2  0  0  0  0
 10 55  1  0  0  0  0
 10 98  1  0  0  0  0
 11 55  2  0  0  0  0
 12 22  1  0  0  0  0
 12 25  1  0  0  0  0
 12 26  1  0  0  0  0
 13 27  1  0  0  0  0
 13 30  1  0  0  0  0
 13 67  1  0  0  0  0
 14 28  1  0  0  0  0
 14 36  1  0  0  0  0
 14 69  1  0  0  0  0
 15 32  1  0  0  0  0
 15 33  1  0  0  0  0
 15 42  1  0  0  0  0
 16 39  1  0  0  0  0
 16 41  1  0  0  0  0
 16 79  1  0  0  0  0
 17 38  1  0  0  0  0
 17 51  1  0  0  0  0
 17 87  1  0  0  0  0
 18 43  1  0  0  0  0
 18 50  1  0  0  0  0
 18 88  1  0  0  0  0
 19 52  1  0  0  0  0
 19 56  2  0  0  0  0
 20 56  1  0  0  0  0
 20101  1  0  0  0  0
 20102  1  0  0  0  0
 21 56  1  0  0  0  0
 21 99  1  0  0  0  0
 21100  1  0  0  0  0
 22 23  1  0  0  0  0
 22 27  1  0  0  0  0
 22 57  1  6  0  0  0
 23 24  1  0  0  0  0
 23 58  1  0  0  0  0
 23 59  1  0  0  0  0
 24 25  1  0  0  0  0
 24 60  1  0  0  0  0
 24 61  1  0  0  0  0
 25 62  1  0  0  0  0
 25 63  1  0  0  0  0
 26 28  1  0  0  0  0
 28 29  1  6  0  0  0
 28 64  1  0  0  0  0
 29 31  1  0  0  0  0
 29 65  1  0  0  0  0
 29 66  1  0  0  0  0
 30 33  1  0  0  0  0
 30 34  1  0  0  0  0
 30 68  1  1  0  0  0
 31 37  1  0  0  0  0
 31 39  2  0  0  0  0
 32 35  1  6  0  0  0
 32 43  1  0  0  0  0
 32 70  1  0  0  0  0
 34 71  1  0  0  0  0
 34 72  1  0  0  0  0
 35 40  1  0  0  0  0
 35 73  1  0  0  0  0
 35 74  1  0  0  0  0
 36 38  1  0  0  0  0
 37 41  1  0  0  0  0
 37 47  2  0  0  0  0
 38 46  1  6  0  0  0
 38 75  1  0  0  0  0
 39 76  1  0  0  0  0
 40 45  1  0  0  0  0
 40 77  1  0  0  0  0
 40 78  1  0  0  0  0
 41 49  2  0  0  0  0
 42 44  1  0  0  0  0
 44 48  1  0  0  0  0
 44 80  1  0  0  0  0
 44 81  1  0  0  0  0
 45 52  1  0  0  0  0
 45 82  1  0  0  0  0
 45 83  1  0  0  0  0
 46 55  1  0  0  0  0
 46 84  1  0  0  0  0
 46 85  1  0  0  0  0
 47 53  1  0  0  0  0
 47 86  1  0  0  0  0
 48 89  1  0  0  0  0
 48 90  1  0  0  0  0
 49 54  1  0  0  0  0
 49 91  1  0  0  0  0
 50 51  1  0  0  0  0
 50 92  1  0  0  0  0
 50 93  1  0  0  0  0
 52 94  1  0  0  0  0
 52 95  1  0  0  0  0
 53 54  2  0  0  0  0
 53 96  1  0  0  0  0
 54 97  1  0  0  0  0
M  END
> <PUBCHEM_COMPOUND_CID>
5311082

> <PUBCHEM_COMPOUND_CANONICALIZED>
1

> <PUBCHEM_CACTVS_COMPLEXITY>
1550

> <PUBCHEM_CACTVS_HBOND_ACCEPTOR>
12

> <PUBCHEM_CACTVS_HBOND_DONOR>
8

> <PUBCHEM_CACTVS_ROTATABLE_BOND>
9

> <PUBCHEM_CACTVS_SUBSKEYS>
AAADcfB//ABgAAAAAAAAAAAAAAAAAWLAAAAwAAAAAAAAAFgB8AAAHgQQCAAADCjF3gS9yPPJkgCoAzX3fACCgCExAiAI2aG4ZJgIYPrAkbGUYAhmliDIyAc/icCOgAAAAAACAAAAAAAAAAQAAAAAAAAAAA==

> <PUBCHEM_IUPAC_INCHI>
InChI=1S/C35H46N10O9S2/c36-35(37)38-11-4-3-8-26-31(51)40-17-27(46)41-22(15-29(48)49)30(50)42-23(14-19-16-39-21-7-2-1-6-20(19)21)33(53)44-12-5-9-25(44)32(52)43-24-18-56-55-13-10-28(47)45(26)34(24)54/h1-2,6-7,16,22-26,39H,3-5,8-15,17-18H2,(H,40,51)(H,41,46)(H,42,50)(H,43,52)(H,48,49)(H4,36,37,38)/t22-,23-,24-,25-,26-/m0/s1

> <PUBCHEM_IUPAC_INCHIKEY>
ITPPZKQWHHMJQQ-LROMGURASA-N

> <PUBCHEM_XLOGP3_AA>
-1.6

> <PUBCHEM_EXACT_MASS>
814.289065

> <PUBCHEM_MOLECULAR_FORMULA>
C35H46N10O9S2

> <PUBCHEM_MOLECULAR_WEIGHT>
814.93134

> <PUBCHEM_OPENEYE_CAN_SMILES>
C1CC2C(=O)NC3CSSCCC(=O)N(C3=O)C(C(=O)NCC(=O)NC(C(=O)NC(C(=O)N2C1)CC4=CNC5=CC=CC=C54)CC(=O)O)CCCCN=C(N)N

> <PUBCHEM_OPENEYE_ISO_SMILES>
C1C[C@H]2C(=O)N[C@H]3CSSCCC(=O)N(C3=O)[C@H](C(=O)NCC(=O)N[C@H](C(=O)N[C@H](C(=O)N2C1)CC4=CNC5=CC=CC=C54)CC(=O)O)CCCCN=C(N)N

> <PUBCHEM_CACTVS_TPSA>
342

> <PUBCHEM_MONOISOTOPIC_WEIGHT>
814.289065

> <PUBCHEM_TOTAL_CHARGE>
0

> <PUBCHEM_HEAVY_ATOM_COUNT>
56

> <PUBCHEM_ATOM_DEF_STEREO_COUNT>
5

> <PUBCHEM_ATOM_UDEF_STEREO_COUNT>
0

> <PUBCHEM_BOND_DEF_STEREO_COUNT>
0

> <PUBCHEM_BOND_UDEF_STEREO_COUNT>
0

> <PUBCHEM_ISOTOPIC_ATOM_COUNT>
0

> <PUBCHEM_COMPONENT_COUNT>
1

> <PUBCHEM_CACTVS_TAUTO_COUNT>
432

> <PUBCHEM_COORDINATE_TYPE>
1
5
255

> <PUBCHEM_BONDANNOTATIONS>
16  39  8
16  41  8
22  57  6
28  29  6
30  68  5
31  37  8
31  39  8
32  35  6
37  41  8
37  47  8
38  46  6
41  49  8
47  53  8
49  54  8
53  54  8

$$$$
