5320
  -OEChem-12171208132D

 24 24  0     0  0  0  0  0  0999 V2000
    3.0000    0.9050    0.0000 S   0  0  0  0  0  0  0  0  0  0  0  0
    4.0000    0.9050    0.0000 O   0  0  0  0  0  0  0  0  0  0  0  0
    2.0000    0.9050    0.0000 O   0  0  0  0  0  0  0  0  0  0  0  0
    4.7320    1.9050    0.0000 O   0  0  0  0  0  0  0  0  0  0  0  0
    3.0000    1.9050    0.0000 N   0  0  0  0  0  0  0  0  0  0  0  0
    3.0000   -3.0950    0.0000 N   0  0  0  0  0  0  0  0  0  0  0  0
    3.0000   -0.0950    0.0000 C   0  0  0  0  0  0  0  0  0  0  0  0
    2.1340   -0.5950    0.0000 C   0  0  0  0  0  0  0  0  0  0  0  0
    3.8660   -0.5950    0.0000 C   0  0  0  0  0  0  0  0  0  0  0  0
    3.0000   -2.0950    0.0000 C   0  0  0  0  0  0  0  0  0  0  0  0
    2.1340   -1.5950    0.0000 C   0  0  0  0  0  0  0  0  0  0  0  0
    3.8660   -1.5950    0.0000 C   0  0  0  0  0  0  0  0  0  0  0  0
    3.8660    2.4050    0.0000 C   0  0  0  0  0  0  0  0  0  0  0  0
    3.8660    3.4050    0.0000 C   0  0  0  0  0  0  0  0  0  0  0  0
    1.5970   -0.2850    0.0000 H   0  0  0  0  0  0  0  0  0  0  0  0
    4.4030   -0.2850    0.0000 H   0  0  0  0  0  0  0  0  0  0  0  0
    2.4631    2.2150    0.0000 H   0  0  0  0  0  0  0  0  0  0  0  0
    1.5970   -1.9050    0.0000 H   0  0  0  0  0  0  0  0  0  0  0  0
    4.4030   -1.9050    0.0000 H   0  0  0  0  0  0  0  0  0  0  0  0
    4.4860    3.4050    0.0000 H   0  0  0  0  0  0  0  0  0  0  0  0
    3.8660    4.0250    0.0000 H   0  0  0  0  0  0  0  0  0  0  0  0
    3.2460    3.4050    0.0000 H   0  0  0  0  0  0  0  0  0  0  0  0
    2.4631   -3.4050    0.0000 H   0  0  0  0  0  0  0  0  0  0  0  0
    3.5369   -3.4050    0.0000 H   0  0  0  0  0  0  0  0  0  0  0  0
  1  2  2  0  0  0  0
  1  3  2  0  0  0  0
  1  5  1  0  0  0  0
  1  7  1  0  0  0  0
  4 13  2  0  0  0  0
  5 13  1  0  0  0  0
  5 17  1  0  0  0  0
  6 10  1  0  0  0  0
  6 23  1  0  0  0  0
  6 24  1  0  0  0  0
  7  8  2  0  0  0  0
  7  9  1  0  0  0  0
  8 11  1  0  0  0  0
  8 15  1  0  0  0  0
  9 12  2  0  0  0  0
  9 16  1  0  0  0  0
 10 11  2  0  0  0  0
 10 12  1  0  0  0  0
 11 18  1  0  0  0  0
 12 19  1  0  0  0  0
 13 14  1  0  0  0  0
 14 20  1  0  0  0  0
 14 21  1  0  0  0  0
 14 22  1  0  0  0  0
M  END
> <PUBCHEM_COMPOUND_CID>
5320

> <PUBCHEM_COMPOUND_CANONICALIZED>
1

> <PUBCHEM_CACTVS_COMPLEXITY>
299

> <PUBCHEM_CACTVS_HBOND_ACCEPTOR>
4

> <PUBCHEM_CACTVS_HBOND_DONOR>
2

> <PUBCHEM_CACTVS_ROTATABLE_BOND>
2

> <PUBCHEM_CACTVS_SUBSKEYS>
AAADccBzMABAAAAAAAAAAAAAAAAAAAAAAAAwAAAAAAAAAAABAAAAHgQQQAAACAiB0AAywYBAAAKIACVSUHDCABAgAgAIiBgAZIgIICKAkZGAIABgkAAIyAcQAAAAAAQAAAAAAAAACAAAAAAAAAAAAAAAAA==

> <PUBCHEM_IUPAC_OPENEYE_NAME>
N-(4-aminophenyl)sulfonylacetamide

> <PUBCHEM_IUPAC_CAS_NAME>
N-(4-aminophenyl)sulfonylacetamide

> <PUBCHEM_IUPAC_NAME>
N-(4-aminophenyl)sulfonylacetamide

> <PUBCHEM_IUPAC_SYSTEMATIC_NAME>
N-(4-aminophenyl)sulfonylethanamide

> <PUBCHEM_IUPAC_TRADITIONAL_NAME>
N-sulfanilylacetamide

> <PUBCHEM_IUPAC_INCHI>
InChI=1S/C8H10N2O3S/c1-6(11)10-14(12,13)8-4-2-7(9)3-5-8/h2-5H,9H2,1H3,(H,10,11)

> <PUBCHEM_IUPAC_INCHIKEY>
SKIVFJLNDNKQPD-UHFFFAOYSA-N

> <PUBCHEM_XLOGP3>
-1

> <PUBCHEM_EXACT_MASS>
214.041213

> <PUBCHEM_MOLECULAR_FORMULA>
C8H10N2O3S

> <PUBCHEM_MOLECULAR_WEIGHT>
214.2416

> <PUBCHEM_OPENEYE_CAN_SMILES>
CC(=O)NS(=O)(=O)C1=CC=C(C=C1)N

> <PUBCHEM_OPENEYE_ISO_SMILES>
CC(=O)NS(=O)(=O)C1=CC=C(C=C1)N

> <PUBCHEM_CACTVS_TPSA>
97.6

> <PUBCHEM_MONOISOTOPIC_WEIGHT>
214.041213

> <PUBCHEM_TOTAL_CHARGE>
0

> <PUBCHEM_HEAVY_ATOM_COUNT>
14

> <PUBCHEM_ATOM_DEF_STEREO_COUNT>
0

> <PUBCHEM_ATOM_UDEF_STEREO_COUNT>
0

> <PUBCHEM_BOND_DEF_STEREO_COUNT>
0

> <PUBCHEM_BOND_UDEF_STEREO_COUNT>
0

> <PUBCHEM_ISOTOPIC_ATOM_COUNT>
0

> <PUBCHEM_COMPONENT_COUNT>
1

> <PUBCHEM_CACTVS_TAUTO_COUNT>
2

> <PUBCHEM_COORDINATE_TYPE>
1
5
255

> <PUBCHEM_BONDANNOTATIONS>
10  11  8
10  12  8
7  8  8
7  9  8
8  11  8
9  12  8

$$$$
