5352
  -OEChem-12171208132D

 42 44  0     1  0  0  0  0  0999 V2000
    9.7690   -2.3347    0.0000 S   0  0  3  0  0  0  0  0  0  0  0  0
    2.0000    1.2454    0.0000 F   0  0  0  0  0  0  0  0  0  0  0  0
    7.1441    3.1574    0.0000 O   0  0  0  0  0  0  0  0  0  0  0  0
    7.5013    1.4626    0.0000 O   0  0  0  0  0  0  0  0  0  0  0  0
   10.4368   -1.5904    0.0000 O   0  0  0  0  0  0  0  0  0  0  0  0
    5.5443    1.0501    0.0000 C   0  0  0  0  0  0  0  0  0  0  0  0
    4.5981    0.7454    0.0000 C   0  0  0  0  0  0  0  0  0  0  0  0
    6.1279    0.2454    0.0000 C   0  0  0  0  0  0  0  0  0  0  0  0
    5.5443   -0.5593    0.0000 C   0  0  0  0  0  0  0  0  0  0  0  0
    4.5981   -0.2546    0.0000 C   0  0  0  0  0  0  0  0  0  0  0  0
    5.8550    2.0006    0.0000 C   0  0  0  0  0  0  0  0  0  0  0  0
    5.8550   -1.5098    0.0000 C   0  0  0  0  0  0  0  0  0  0  0  0
    3.7320    1.2454    0.0000 C   0  0  0  0  0  0  0  0  0  0  0  0
    3.7320   -0.7546    0.0000 C   0  0  0  0  0  0  0  0  0  0  0  0
    7.1279    0.2454    0.0000 C   0  0  0  0  0  0  0  0  0  0  0  0
    6.8335   -1.7161    0.0000 C   0  0  0  0  0  0  0  0  0  0  0  0
    2.8660    0.7454    0.0000 C   0  0  0  0  0  0  0  0  0  0  0  0
    2.8660   -0.2546    0.0000 C   0  0  0  0  0  0  0  0  0  0  0  0
    6.8335    2.2069    0.0000 C   0  0  0  0  0  0  0  0  0  0  0  0
    7.1441   -2.6666    0.0000 C   0  0  0  0  0  0  0  0  0  0  0  0
    7.5013   -0.9718    0.0000 C   0  0  0  0  0  0  0  0  0  0  0  0
    8.7905   -2.1285    0.0000 C   0  0  0  0  0  0  0  0  0  0  0  0
    8.1226   -2.8728    0.0000 C   0  0  0  0  0  0  0  0  0  0  0  0
    8.4798   -1.1780    0.0000 C   0  0  0  0  0  0  0  0  0  0  0  0
   10.0796   -3.2852    0.0000 C   0  0  0  0  0  0  0  0  0  0  0  0
    5.8344    2.6203    0.0000 H   0  0  0  0  0  0  0  0  0  0  0  0
    5.2411    2.0880    0.0000 H   0  0  0  0  0  0  0  0  0  0  0  0
    5.4409   -1.9713    0.0000 H   0  0  0  0  0  0  0  0  0  0  0  0
    3.7320    1.8654    0.0000 H   0  0  0  0  0  0  0  0  0  0  0  0
    3.7320   -1.3746    0.0000 H   0  0  0  0  0  0  0  0  0  0  0  0
    7.1279   -0.3746    0.0000 H   0  0  0  0  0  0  0  0  0  0  0  0
    7.7479    0.2454    0.0000 H   0  0  0  0  0  0  0  0  0  0  0  0
    7.1279    0.8654    0.0000 H   0  0  0  0  0  0  0  0  0  0  0  0
    2.3291   -0.5646    0.0000 H   0  0  0  0  0  0  0  0  0  0  0  0
    6.7301   -3.1281    0.0000 H   0  0  0  0  0  0  0  0  0  0  0  0
    7.3087   -0.3824    0.0000 H   0  0  0  0  0  0  0  0  0  0  0  0
    8.3152   -3.4621    0.0000 H   0  0  0  0  0  0  0  0  0  0  0  0
    8.8939   -0.7165    0.0000 H   0  0  0  0  0  0  0  0  0  0  0  0
    7.7508    3.2852    0.0000 H   0  0  0  0  0  0  0  0  0  0  0  0
    9.4903   -3.4779    0.0000 H   0  0  0  0  0  0  0  0  0  0  0  0
   10.2723   -3.8746    0.0000 H   0  0  0  0  0  0  0  0  0  0  0  0
   10.6690   -3.0926    0.0000 H   0  0  0  0  0  0  0  0  0  0  0  0
  1  5  2  0  0  0  0
  1 22  1  0  0  0  0
  1 25  1  0  0  0  0
  2 17  1  0  0  0  0
  3 19  1  0  0  0  0
  3 39  1  0  0  0  0
  4 19  2  0  0  0  0
  6  7  1  0  0  0  0
  6  8  2  0  0  0  0
  6 11  1  0  0  0  0
  7 10  2  0  0  0  0
  7 13  1  0  0  0  0
  8  9  1  0  0  0  0
  8 15  1  0  0  0  0
  9 10  1  0  0  0  0
  9 12  2  3  0  0  0
 10 14  1  0  0  0  0
 11 19  1  0  0  0  0
 11 26  1  0  0  0  0
 11 27  1  0  0  0  0
 12 16  1  0  0  0  0
 12 28  1  0  0  0  0
 13 17  2  0  0  0  0
 13 29  1  0  0  0  0
 14 18  2  0  0  0  0
 14 30  1  0  0  0  0
 15 31  1  0  0  0  0
 15 32  1  0  0  0  0
 15 33  1  0  0  0  0
 16 20  2  0  0  0  0
 16 21  1  0  0  0  0
 17 18  1  0  0  0  0
 18 34  1  0  0  0  0
 20 23  1  0  0  0  0
 20 35  1  0  0  0  0
 21 24  2  0  0  0  0
 21 36  1  0  0  0  0
 22 23  2  0  0  0  0
 22 24  1  0  0  0  0
 23 37  1  0  0  0  0
 24 38  1  0  0  0  0
 25 40  1  0  0  0  0
 25 41  1  0  0  0  0
 25 42  1  0  0  0  0
M  END
> <PUBCHEM_COMPOUND_CID>
5352

> <PUBCHEM_COMPOUND_CANONICALIZED>
1

> <PUBCHEM_CACTVS_COMPLEXITY>
616

> <PUBCHEM_CACTVS_HBOND_ACCEPTOR>
5

> <PUBCHEM_CACTVS_HBOND_DONOR>
1

> <PUBCHEM_CACTVS_ROTATABLE_BOND>
4

> <PUBCHEM_CACTVS_SUBSKEYS>
AAADceB4MQBAAAAAAAAAAAAAAAAAAQAAAAAwYAAAAAAAAEABQAAAGwQACAAADACA2AiyCYAAAgqIAiDSCEBCAAAgCBAIiBkAAIgIIDKgERCAYAAkwAAIiAeIyLCOkAAAAAAQAAAgAAAAACAAAAAAAAAAAA==

> <PUBCHEM_IUPAC_OPENEYE_NAME>
2-[6-fluoro-2-methyl-3-[(4-methylsulfinylphenyl)methylene]inden-1-yl]acetic acid

> <PUBCHEM_IUPAC_CAS_NAME>
2-[6-fluoro-2-methyl-3-[(4-methylsulfinylphenyl)methylidene]-1-indenyl]acetic acid

> <PUBCHEM_IUPAC_NAME>
2-[6-fluoro-2-methyl-3-[(4-methylsulfinylphenyl)methylidene]inden-1-yl]acetic acid

> <PUBCHEM_IUPAC_SYSTEMATIC_NAME>
2-[6-fluoranyl-2-methyl-3-[(4-methylsulfinylphenyl)methylidene]inden-1-yl]ethanoic acid

> <PUBCHEM_IUPAC_TRADITIONAL_NAME>
2-[6-fluoro-2-methyl-3-(4-methylsulfinylbenzylidene)inden-1-yl]acetic acid

> <PUBCHEM_IUPAC_INCHI>
InChI=1S/C20H17FO3S/c1-12-17(9-13-3-6-15(7-4-13)25(2)24)16-8-5-14(21)10-19(16)18(12)11-20(22)23/h3-10H,11H2,1-2H3,(H,22,23)

> <PUBCHEM_IUPAC_INCHIKEY>
MLKXDPUZXIRXEP-UHFFFAOYSA-N

> <PUBCHEM_XLOGP3>
3.4

> <PUBCHEM_EXACT_MASS>
356.088244

> <PUBCHEM_MOLECULAR_FORMULA>
C20H17FO3S

> <PUBCHEM_MOLECULAR_WEIGHT>
356.410583

> <PUBCHEM_OPENEYE_CAN_SMILES>
CC1=C(C2=C(C1=CC3=CC=C(C=C3)S(=O)C)C=CC(=C2)F)CC(=O)O

> <PUBCHEM_OPENEYE_ISO_SMILES>
CC1=C(C2=C(C1=CC3=CC=C(C=C3)S(=O)C)C=CC(=C2)F)CC(=O)O

> <PUBCHEM_CACTVS_TPSA>
73.6

> <PUBCHEM_MONOISOTOPIC_WEIGHT>
356.088244

> <PUBCHEM_TOTAL_CHARGE>
0

> <PUBCHEM_HEAVY_ATOM_COUNT>
25

> <PUBCHEM_ATOM_DEF_STEREO_COUNT>
0

> <PUBCHEM_ATOM_UDEF_STEREO_COUNT>
1

> <PUBCHEM_BOND_DEF_STEREO_COUNT>
0

> <PUBCHEM_BOND_UDEF_STEREO_COUNT>
1

> <PUBCHEM_ISOTOPIC_ATOM_COUNT>
0

> <PUBCHEM_COMPONENT_COUNT>
1

> <PUBCHEM_CACTVS_TAUTO_COUNT>
1

> <PUBCHEM_COORDINATE_TYPE>
1
5
255

> <PUBCHEM_BONDANNOTATIONS>
1  25  3
10  14  8
13  17  8
14  18  8
16  20  8
16  21  8
17  18  8
20  23  8
21  24  8
22  23  8
22  24  8
7  10  8
7  13  8
9  12  1

$$$$
