5362420
  -OEChem-12171208252D

 95100  0     1  0  0  0  0  0999 V2000
    6.7895    4.4228    0.0000 O   0  0  0  0  0  0  0  0  0  0  0  0
    6.8096    2.6909    0.0000 O   0  0  0  0  0  0  0  0  0  0  0  0
    8.8072    6.2134    0.0000 O   0  0  0  0  0  0  0  0  0  0  0  0
    7.3106    5.3416    0.0000 O   0  0  0  0  0  0  0  0  0  0  0  0
    2.8660   -0.7932    0.0000 O   0  0  0  0  0  0  0  0  0  0  0  0
    3.7321   -2.2931    0.0000 O   0  0  0  0  0  0  0  0  0  0  0  0
    8.1407   -6.6176    0.0000 O   0  0  0  0  0  0  0  0  0  0  0  0
    6.8560   -5.4559    0.0000 O   0  0  0  0  0  0  0  0  0  0  0  0
    9.3353    1.0770    0.0000 N   0  0  0  0  0  0  0  0  0  0  0  0
    7.8654   -0.2925    0.0000 N   0  0  0  0  0  0  0  0  0  0  0  0
   10.8705   -0.2925    0.0000 N   0  0  0  0  0  0  0  0  0  0  0  0
    9.3688   -1.6620    0.0000 N   0  0  0  0  0  0  0  0  0  0  0  0
    8.8347    2.6792    0.0000 C   0  0  2  0  0  0  0  0  0  0  0  0
    8.2994    3.5742    0.0000 C   0  0  1  0  0  0  0  0  0  0  0  0
    9.8359    2.6792    0.0000 C   0  0  0  0  0  0  0  0  0  0  0  0
    8.5334    1.7115    0.0000 C   0  0  0  0  0  0  0  0  0  0  0  0
    7.8347    2.6792    0.0000 C   0  0  0  0  0  0  0  0  0  0  0  0
    8.8139    4.4813    0.0000 C   0  0  0  0  0  0  0  0  0  0  0  0
   10.1707    1.7450    0.0000 C   0  0  0  0  0  0  0  0  0  0  0  0
   10.3712    3.5742    0.0000 C   0  0  0  0  0  0  0  0  0  0  0  0
    9.8567    4.4813    0.0000 C   0  0  0  0  0  0  0  0  0  0  0  0
    7.2995    3.5626    0.0000 C   0  0  0  0  0  0  0  0  0  0  0  0
    7.5657    1.4436    0.0000 C   0  0  0  0  0  0  0  0  0  0  0  0
   11.1384    1.4436    0.0000 C   0  0  0  0  0  0  0  0  0  0  0  0
    7.2978    0.4760    0.0000 C   0  0  0  0  0  0  0  0  0  0  0  0
    8.3105    5.3454    0.0000 C   0  0  0  0  0  0  0  0  0  0  0  0
    6.3301    0.2081    0.0000 C   0  0  0  0  0  0  0  0  0  0  0  0
   11.4381    0.5094    0.0000 C   0  0  0  0  0  0  0  0  0  0  0  0
    6.3301   -0.7931    0.0000 C   0  0  0  0  0  0  0  0  0  0  0  0
    7.2978   -1.0610    0.0000 C   0  0  0  0  0  0  0  0  0  0  0  0
   12.4075    0.2416    0.0000 C   0  0  0  0  0  0  0  0  0  0  0  0
    5.4641   -1.2931    0.0000 C   0  0  0  0  0  0  0  0  0  0  0  0
    5.5342    0.8136    0.0000 C   0  0  0  0  0  0  0  0  0  0  0  0
   11.4716   -1.0275    0.0000 C   0  0  0  0  0  0  0  0  0  0  0  0
   12.4075   -0.7596    0.0000 C   0  0  0  0  0  0  0  0  0  0  0  0
    7.5992   -1.9952    0.0000 C   0  0  0  0  0  0  0  0  0  0  0  0
    8.5668   -2.2965    0.0000 C   0  0  0  0  0  0  0  0  0  0  0  0
    5.7896    4.4112    0.0000 C   0  0  0  0  0  0  0  0  0  0  0  0
    8.8682   -3.2307    0.0000 C   0  0  0  0  0  0  0  0  0  0  0  0
    4.5981   -0.7931    0.0000 C   0  0  0  0  0  0  0  0  0  0  0  0
   11.1719   -1.9952    0.0000 C   0  0  0  0  0  0  0  0  0  0  0  0
   10.1707   -2.2630    0.0000 C   0  0  0  0  0  0  0  0  0  0  0  0
   13.2032    0.8472    0.0000 C   0  0  0  0  0  0  0  0  0  0  0  0
    9.8694   -3.2307    0.0000 C   0  0  0  0  0  0  0  0  0  0  0  0
    8.1975   -3.9724    0.0000 C   0  0  0  0  0  0  0  0  0  0  0  0
    8.3039    7.0774    0.0000 C   0  0  0  0  0  0  0  0  0  0  0  0
   13.2060   -1.3616    0.0000 C   0  0  0  0  0  0  0  0  0  0  0  0
   10.4621   -4.0361    0.0000 C   0  0  0  0  0  0  0  0  0  0  0  0
    3.7320   -1.2931    0.0000 C   0  0  0  0  0  0  0  0  0  0  0  0
    8.5045   -4.9242    0.0000 C   0  0  0  0  0  0  0  0  0  0  0  0
   14.1266   -0.9711    0.0000 C   0  0  0  0  0  0  0  0  0  0  0  0
    7.8338   -5.6659    0.0000 C   0  0  0  0  0  0  0  0  0  0  0  0
    2.0000   -1.2932    0.0000 C   0  0  0  0  0  0  0  0  0  0  0  0
    7.9843    4.1081    0.0000 H   0  0  0  0  0  0  0  0  0  0  0  0
    7.8347    3.2992    0.0000 H   0  0  0  0  0  0  0  0  0  0  0  0
    7.2147    2.6792    0.0000 H   0  0  0  0  0  0  0  0  0  0  0  0
    7.8347    2.0592    0.0000 H   0  0  0  0  0  0  0  0  0  0  0  0
   10.9911    3.5670    0.0000 H   0  0  0  0  0  0  0  0  0  0  0  0
   10.1688    5.0170    0.0000 H   0  0  0  0  0  0  0  0  0  0  0  0
    7.1273    1.8820    0.0000 H   0  0  0  0  0  0  0  0  0  0  0  0
   11.5750    1.8839    0.0000 H   0  0  0  0  0  0  0  0  0  0  0  0
    8.4854   -0.2925    0.0000 H   0  0  0  0  0  0  0  0  0  0  0  0
    5.0656   -1.7681    0.0000 H   0  0  0  0  0  0  0  0  0  0  0  0
    5.8626   -1.7680    0.0000 H   0  0  0  0  0  0  0  0  0  0  0  0
   10.2509   -0.3141    0.0000 H   0  0  0  0  0  0  0  0  0  0  0  0
    5.9096    1.3070    0.0000 H   0  0  0  0  0  0  0  0  0  0  0  0
    5.0408    1.1890    0.0000 H   0  0  0  0  0  0  0  0  0  0  0  0
    5.1589    0.3201    0.0000 H   0  0  0  0  0  0  0  0  0  0  0  0
    7.1630   -2.4358    0.0000 H   0  0  0  0  0  0  0  0  0  0  0  0
    5.7824    5.0312    0.0000 H   0  0  0  0  0  0  0  0  0  0  0  0
    5.1696    4.4041    0.0000 H   0  0  0  0  0  0  0  0  0  0  0  0
    5.7968    3.7913    0.0000 H   0  0  0  0  0  0  0  0  0  0  0  0
    4.9966   -0.3182    0.0000 H   0  0  0  0  0  0  0  0  0  0  0  0
    4.1995   -0.3182    0.0000 H   0  0  0  0  0  0  0  0  0  0  0  0
   11.6017   -2.4420    0.0000 H   0  0  0  0  0  0  0  0  0  0  0  0
   13.5787    0.3539    0.0000 H   0  0  0  0  0  0  0  0  0  0  0  0
   13.6965    1.2227    0.0000 H   0  0  0  0  0  0  0  0  0  0  0  0
   12.8277    1.3406    0.0000 H   0  0  0  0  0  0  0  0  0  0  0  0
    7.8168   -3.4831    0.0000 H   0  0  0  0  0  0  0  0  0  0  0  0
    7.6494   -4.2623    0.0000 H   0  0  0  0  0  0  0  0  0  0  0  0
    8.8396    7.3895    0.0000 H   0  0  0  0  0  0  0  0  0  0  0  0
    7.9918    7.6132    0.0000 H   0  0  0  0  0  0  0  0  0  0  0  0
    7.7681    6.7654    0.0000 H   0  0  0  0  0  0  0  0  0  0  0  0
   13.1303   -1.9770    0.0000 H   0  0  0  0  0  0  0  0  0  0  0  0
    9.9628   -4.4036    0.0000 H   0  0  0  0  0  0  0  0  0  0  0  0
   10.8296   -4.5354    0.0000 H   0  0  0  0  0  0  0  0  0  0  0  0
   10.9615   -3.6686    0.0000 H   0  0  0  0  0  0  0  0  0  0  0  0
    8.8851   -5.4135    0.0000 H   0  0  0  0  0  0  0  0  0  0  0  0
    9.0525   -4.6343    0.0000 H   0  0  0  0  0  0  0  0  0  0  0  0
   14.6216   -1.3443    0.0000 H   0  0  0  0  0  0  0  0  0  0  0  0
   14.2023   -0.3557    0.0000 H   0  0  0  0  0  0  0  0  0  0  0  0
    1.6900   -0.7562    0.0000 H   0  0  0  0  0  0  0  0  0  0  0  0
    1.4631   -1.6032    0.0000 H   0  0  0  0  0  0  0  0  0  0  0  0
    2.3100   -1.8301    0.0000 H   0  0  0  0  0  0  0  0  0  0  0  0
    7.7249   -7.0774    0.0000 H   0  0  0  0  0  0  0  0  0  0  0  0
  1 22  1  0  0  0  0
  1 38  1  0  0  0  0
  2 22  2  0  0  0  0
  3 26  1  0  0  0  0
  3 46  1  0  0  0  0
  4 26  2  0  0  0  0
  5 49  1  0  0  0  0
  5 53  1  0  0  0  0
  6 49  2  0  0  0  0
  7 52  1  0  0  0  0
  7 95  1  0  0  0  0
  8 52  2  0  0  0  0
  9 16  1  0  0  0  0
  9 19  2  0  0  0  0
 10 25  1  0  0  0  0
 10 30  1  0  0  0  0
 10 62  1  0  0  0  0
 11 28  1  0  0  0  0
 11 34  1  0  0  0  0
 11 65  1  0  0  0  0
 12 37  1  0  0  0  0
 12 42  2  0  0  0  0
 13 14  1  0  0  0  0
 13 15  1  0  0  0  0
 13 16  1  0  0  0  0
 13 17  1  1  0  0  0
 14 18  1  0  0  0  0
 14 22  1  6  0  0  0
 14 54  1  0  0  0  0
 15 19  1  0  0  0  0
 15 20  2  0  0  0  0
 16 23  2  0  0  0  0
 17 55  1  0  0  0  0
 17 56  1  0  0  0  0
 17 57  1  0  0  0  0
 18 21  2  0  0  0  0
 18 26  1  0  0  0  0
 19 24  1  0  0  0  0
 20 21  1  0  0  0  0
 20 58  1  0  0  0  0
 21 59  1  0  0  0  0
 23 25  1  0  0  0  0
 23 60  1  0  0  0  0
 24 28  2  0  0  0  0
 24 61  1  0  0  0  0
 25 27  2  0  0  0  0
 27 29  1  0  0  0  0
 27 33  1  0  0  0  0
 28 31  1  0  0  0  0
 29 30  2  0  0  0  0
 29 32  1  0  0  0  0
 30 36  1  0  0  0  0
 31 35  2  0  0  0  0
 31 43  1  0  0  0  0
 32 40  1  0  0  0  0
 32 63  1  0  0  0  0
 32 64  1  0  0  0  0
 33 66  1  0  0  0  0
 33 67  1  0  0  0  0
 33 68  1  0  0  0  0
 34 35  1  0  0  0  0
 34 41  2  0  0  0  0
 35 47  1  0  0  0  0
 36 37  2  0  0  0  0
 36 69  1  0  0  0  0
 37 39  1  0  0  0  0
 38 70  1  0  0  0  0
 38 71  1  0  0  0  0
 38 72  1  0  0  0  0
 39 44  2  0  0  0  0
 39 45  1  0  0  0  0
 40 49  1  0  0  0  0
 40 73  1  0  0  0  0
 40 74  1  0  0  0  0
 41 42  1  0  0  0  0
 41 75  1  0  0  0  0
 42 44  1  0  0  0  0
 43 76  1  0  0  0  0
 43 77  1  0  0  0  0
 43 78  1  0  0  0  0
 44 48  1  0  0  0  0
 45 50  1  0  0  0  0
 45 79  1  0  0  0  0
 45 80  1  0  0  0  0
 46 81  1  0  0  0  0
 46 82  1  0  0  0  0
 46 83  1  0  0  0  0
 47 51  2  0  0  0  0
 47 84  1  0  0  0  0
 48 85  1  0  0  0  0
 48 86  1  0  0  0  0
 48 87  1  0  0  0  0
 50 52  1  0  0  0  0
 50 88  1  0  0  0  0
 50 89  1  0  0  0  0
 51 90  1  0  0  0  0
 51 91  1  0  0  0  0
 53 92  1  0  0  0  0
 53 93  1  0  0  0  0
 53 94  1  0  0  0  0
M  END
> <PUBCHEM_COMPOUND_CID>
5362420

> <PUBCHEM_COMPOUND_CANONICALIZED>
1

> <PUBCHEM_CACTVS_COMPLEXITY>
1500

> <PUBCHEM_CACTVS_HBOND_ACCEPTOR>
10

> <PUBCHEM_CACTVS_HBOND_DONOR>
3

> <PUBCHEM_CACTVS_ROTATABLE_BOND>
12

> <PUBCHEM_CACTVS_SUBSKEYS>
AAADcfB/vAAAAAAAAAAAAAAAAAAAAWLFiwAgAAAAAAAAAEAB/gAAHgAQCAAADwiBngIyyLLJlgCoAyTyTACCgCAhAiAImSEwZNgIJHLA8dGEdAhk0ADI6Yf/2fOfgAAAAAAAAAAAAAAAAAAAAAAAAAAAAA==

> <PUBCHEM_IUPAC_INCHI>
InChI=1S/C41H42N4O8/c1-9-23-20(2)29-17-34-27-13-10-26(39(49)52-7)38(40(50)53-8)41(27,5)35(45-34)19-30-22(4)25(12-15-37(48)51-6)33(44-30)18-32-24(11-14-36(46)47)21(3)28(43-32)16-31(23)42-29/h9-10,13,16-19,38,42,44H,1,11-12,14-15H2,2-8H3,(H,46,47)/t38-,41+/m0/s1

> <PUBCHEM_IUPAC_INCHIKEY>
YTZALCGQUPRCGW-ZSFNYQMMSA-N

> <PUBCHEM_XLOGP3_AA>
4.9

> <PUBCHEM_EXACT_MASS>
718.300264

> <PUBCHEM_MOLECULAR_FORMULA>
C41H42N4O8

> <PUBCHEM_MOLECULAR_WEIGHT>
718.79418

> <PUBCHEM_OPENEYE_CAN_SMILES>
CC1=C(C2=CC3=NC(=CC4=C(C(=C(N4)C=C5C6(C(C(=CC=C6C(=N5)C=C1N2)C(=O)OC)C(=O)OC)C)C)CCC(=O)OC)C(=C3C)CCC(=O)O)C=C

> <PUBCHEM_OPENEYE_ISO_SMILES>
CC1=C(C2=CC3=NC(=CC4=C(C(=C(N4)C=C5[C@@]6([C@@H](C(=CC=C6C(=N5)C=C1N2)C(=O)OC)C(=O)OC)C)C)CCC(=O)OC)C(=C3C)CCC(=O)O)C=C

> <PUBCHEM_CACTVS_TPSA>
174

> <PUBCHEM_MONOISOTOPIC_WEIGHT>
718.300264

> <PUBCHEM_TOTAL_CHARGE>
0

> <PUBCHEM_HEAVY_ATOM_COUNT>
53

> <PUBCHEM_ATOM_DEF_STEREO_COUNT>
2

> <PUBCHEM_ATOM_UDEF_STEREO_COUNT>
0

> <PUBCHEM_BOND_DEF_STEREO_COUNT>
0

> <PUBCHEM_BOND_UDEF_STEREO_COUNT>
0

> <PUBCHEM_ISOTOPIC_ATOM_COUNT>
0

> <PUBCHEM_COMPONENT_COUNT>
1

> <PUBCHEM_CACTVS_TAUTO_COUNT>
6

> <PUBCHEM_COORDINATE_TYPE>
1
5
255

> <PUBCHEM_BONDANNOTATIONS>
10  25  8
10  30  8
11  28  8
11  34  8
12  37  8
12  42  8
13  17  5
14  22  6
16  23  8
19  24  8
23  25  8
24  28  8
25  27  8
27  29  8
28  31  8
29  30  8
30  36  8
31  35  8
34  35  8
34  41  8
36  37  8
41  42  8
9  16  8
9  19  8

$$$$
