5362070
  -OEChem-12171208252D

 41 42  0     0  0  0  0  0  0999 V2000
    9.7942   -0.9050    0.0000 O   0  0  0  0  0  0  0  0  0  0  0  0
   10.6603   -5.4050    0.0000 O   0  0  0  0  0  0  0  0  0  0  0  0
   11.5263   -3.9050    0.0000 O   0  0  0  0  0  0  0  0  0  0  0  0
    2.0000    3.5950    0.0000 O   0  0  0  0  0  0  0  0  0  0  0  0
    4.5981    5.0950    0.0000 O   0  0  0  0  0  0  0  0  0  0  0  0
    2.8660    5.0950    0.0000 O   0  0  0  0  0  0  0  0  0  0  0  0
    8.9282   -2.4050    0.0000 N   0  0  0  0  0  0  0  0  0  0  0  0
    5.4641    0.5950    0.0000 N   0  0  0  0  0  0  0  0  0  0  0  0
    5.4641    1.5950    0.0000 N   0  0  0  0  0  0  0  0  0  0  0  0
    9.7942   -2.9050    0.0000 C   0  0  0  0  0  0  0  0  0  0  0  0
    8.0622   -0.9050    0.0000 C   0  0  0  0  0  0  0  0  0  0  0  0
    6.3301    0.0950    0.0000 C   0  0  0  0  0  0  0  0  0  0  0  0
    9.7942   -3.9050    0.0000 C   0  0  0  0  0  0  0  0  0  0  0  0
    8.9282   -1.4050    0.0000 C   0  0  0  0  0  0  0  0  0  0  0  0
    8.0622    0.0950    0.0000 C   0  0  0  0  0  0  0  0  0  0  0  0
    7.1962   -1.4050    0.0000 C   0  0  0  0  0  0  0  0  0  0  0  0
    7.1962    0.5950    0.0000 C   0  0  0  0  0  0  0  0  0  0  0  0
    6.3301   -0.9050    0.0000 C   0  0  0  0  0  0  0  0  0  0  0  0
    4.5981    2.0950    0.0000 C   0  0  0  0  0  0  0  0  0  0  0  0
    4.5981    3.0950    0.0000 C   0  0  0  0  0  0  0  0  0  0  0  0
    3.7320    3.5950    0.0000 C   0  0  0  0  0  0  0  0  0  0  0  0
   10.6603   -4.4050    0.0000 C   0  0  0  0  0  0  0  0  0  0  0  0
    3.7320    1.5950    0.0000 C   0  0  0  0  0  0  0  0  0  0  0  0
    2.8660    3.0950    0.0000 C   0  0  0  0  0  0  0  0  0  0  0  0
    2.8660    2.0950    0.0000 C   0  0  0  0  0  0  0  0  0  0  0  0
    3.7320    4.5950    0.0000 C   0  0  0  0  0  0  0  0  0  0  0  0
   10.4048   -3.0127    0.0000 H   0  0  0  0  0  0  0  0  0  0  0  0
   10.0063   -2.3224    0.0000 H   0  0  0  0  0  0  0  0  0  0  0  0
    9.1836   -3.7973    0.0000 H   0  0  0  0  0  0  0  0  0  0  0  0
    9.5822   -4.4876    0.0000 H   0  0  0  0  0  0  0  0  0  0  0  0
    8.3913   -2.7150    0.0000 H   0  0  0  0  0  0  0  0  0  0  0  0
    8.5991    0.4050    0.0000 H   0  0  0  0  0  0  0  0  0  0  0  0
    7.1962   -2.0250    0.0000 H   0  0  0  0  0  0  0  0  0  0  0  0
    7.1962    1.2150    0.0000 H   0  0  0  0  0  0  0  0  0  0  0  0
    5.7932   -1.2150    0.0000 H   0  0  0  0  0  0  0  0  0  0  0  0
    4.9272    0.2850    0.0000 H   0  0  0  0  0  0  0  0  0  0  0  0
    5.1350    3.4050    0.0000 H   0  0  0  0  0  0  0  0  0  0  0  0
    3.7320    0.9750    0.0000 H   0  0  0  0  0  0  0  0  0  0  0  0
    2.3291    1.7850    0.0000 H   0  0  0  0  0  0  0  0  0  0  0  0
   11.1972   -5.7150    0.0000 H   0  0  0  0  0  0  0  0  0  0  0  0
    4.5981    5.7150    0.0000 H   0  0  0  0  0  0  0  0  0  0  0  0
  1 14  2  0  0  0  0
  2 22  1  0  0  0  0
  2 40  1  0  0  0  0
  3 22  2  0  0  0  0
  4 24  2  0  0  0  0
  5 26  1  0  0  0  0
  5 41  1  0  0  0  0
  6 26  2  0  0  0  0
  7 10  1  0  0  0  0
  7 14  1  0  0  0  0
  7 31  1  0  0  0  0
  8  9  1  0  0  0  0
  8 12  1  0  0  0  0
  8 36  1  0  0  0  0
  9 19  2  0  0  0  0
 10 13  1  0  0  0  0
 10 27  1  0  0  0  0
 10 28  1  0  0  0  0
 11 14  1  0  0  0  0
 11 15  2  0  0  0  0
 11 16  1  0  0  0  0
 12 17  2  0  0  0  0
 12 18  1  0  0  0  0
 13 22  1  0  0  0  0
 13 29  1  0  0  0  0
 13 30  1  0  0  0  0
 15 17  1  0  0  0  0
 15 32  1  0  0  0  0
 16 18  2  0  0  0  0
 16 33  1  0  0  0  0
 17 34  1  0  0  0  0
 18 35  1  0  0  0  0
 19 20  1  0  0  0  0
 19 23  1  0  0  0  0
 20 21  2  0  0  0  0
 20 37  1  0  0  0  0
 21 24  1  0  0  0  0
 21 26  1  0  0  0  0
 23 25  2  0  0  0  0
 23 38  1  0  0  0  0
 24 25  1  0  0  0  0
 25 39  1  0  0  0  0
M  END
> <PUBCHEM_COMPOUND_CID>
5362070

> <PUBCHEM_COMPOUND_CANONICALIZED>
1

> <PUBCHEM_CACTVS_COMPLEXITY>
687

> <PUBCHEM_CACTVS_HBOND_ACCEPTOR>
8

> <PUBCHEM_CACTVS_HBOND_DONOR>
4

> <PUBCHEM_CACTVS_ROTATABLE_BOND>
7

> <PUBCHEM_CACTVS_SUBSKEYS>
AAADccB7OAAAAAAAAAAAAAAAAAAAAAAAAAAwQAAAAAAAAAABAAAAHgAYCAAADAzBmAQwyILiAgCoA6XyWACSBAAkAgAYiIEYZNgIJD6IlZGEcQhmvgCI2YcYiQCeCAAAAAAAAAAQAAAAAAAAAAAAAAAAAA==

> <PUBCHEM_IUPAC_OPENEYE_NAME>
(3E)-3-[[4-(2-carboxyethylcarbamoyl)phenyl]hydrazono]-6-oxo-cyclohexa-1,4-diene-1-carboxylic acid

> <PUBCHEM_IUPAC_CAS_NAME>
(3E)-3-[[4-[(2-carboxyethylamino)-oxomethyl]phenyl]hydrazinylidene]-6-oxo-1-cyclohexa-1,4-dienecarboxylic acid

> <PUBCHEM_IUPAC_NAME>
(3E)-3-[[4-(2-carboxyethylcarbamoyl)phenyl]hydrazinylidene]-6-oxocyclohexa-1,4-diene-1-carboxylic acid

> <PUBCHEM_IUPAC_SYSTEMATIC_NAME>
(3E)-3-[[4-(3-hydroxy-3-oxopropylcarbamoyl)phenyl]hydrazinylidene]-6-oxidanylidene-cyclohexa-1,4-diene-1-carboxylic acid

> <PUBCHEM_IUPAC_TRADITIONAL_NAME>
(3E)-3-[[4-(2-carboxyethylcarbamoyl)phenyl]hydrazono]-6-keto-cyclohexa-1,4-diene-1-carboxylic acid

> <PUBCHEM_IUPAC_INCHI>
InChI=1S/C17H15N3O6/c21-14-6-5-12(9-13(14)17(25)26)20-19-11-3-1-10(2-4-11)16(24)18-8-7-15(22)23/h1-6,9,19H,7-8H2,(H,18,24)(H,22,23)(H,25,26)/b20-12+

> <PUBCHEM_IUPAC_INCHIKEY>
KONZVQJABTUMFX-UDWIEESQSA-N

> <PUBCHEM_XLOGP3_AA>
1.2

> <PUBCHEM_EXACT_MASS>
357.096085

> <PUBCHEM_MOLECULAR_FORMULA>
C17H15N3O6

> <PUBCHEM_MOLECULAR_WEIGHT>
357.3175

> <PUBCHEM_OPENEYE_CAN_SMILES>
C1=CC(=CC=C1C(=O)NCCC(=O)O)NN=C2C=CC(=O)C(=C2)C(=O)O

> <PUBCHEM_OPENEYE_ISO_SMILES>
C1=CC(=CC=C1C(=O)NCCC(=O)O)N/N=C/2\C=CC(=O)C(=C2)C(=O)O

> <PUBCHEM_CACTVS_TPSA>
145

> <PUBCHEM_MONOISOTOPIC_WEIGHT>
357.096085

> <PUBCHEM_TOTAL_CHARGE>
0

> <PUBCHEM_HEAVY_ATOM_COUNT>
26

> <PUBCHEM_ATOM_DEF_STEREO_COUNT>
0

> <PUBCHEM_ATOM_UDEF_STEREO_COUNT>
0

> <PUBCHEM_BOND_DEF_STEREO_COUNT>
1

> <PUBCHEM_BOND_UDEF_STEREO_COUNT>
0

> <PUBCHEM_ISOTOPIC_ATOM_COUNT>
0

> <PUBCHEM_COMPONENT_COUNT>
1

> <PUBCHEM_CACTVS_TAUTO_COUNT>
13

> <PUBCHEM_COORDINATE_TYPE>
1
5
255

> <PUBCHEM_BONDANNOTATIONS>
11  15  8
11  16  8
12  17  8
12  18  8
15  17  8
16  18  8

$$$$
