5493444
  -OEChem-12171208262D

 92 92  0     1  0  0  0  0  0999 V2000
    8.9282   -4.2500    0.0000 O   0  0  0  0  0  0  0  0  0  0  0  0
   11.5263   -1.7500    0.0000 O   0  0  0  0  0  0  0  0  0  0  0  0
    4.5981    1.2500    0.0000 O   0  0  0  0  0  0  0  0  0  0  0  0
    2.8660    0.2500    0.0000 O   0  0  0  0  0  0  0  0  0  0  0  0
   14.9904   -4.7500    0.0000 O   0  0  0  0  0  0  0  0  0  0  0  0
    6.3301    4.2500    0.0000 O   0  0  0  0  0  0  0  0  0  0  0  0
    8.0622   -1.7500    0.0000 N   0  0  0  0  0  0  0  0  0  0  0  0
   12.3923   -3.2500    0.0000 N   0  0  0  0  0  0  0  0  0  0  0  0
   15.8564   -3.2500    0.0000 N   0  0  0  0  0  0  0  0  0  0  0  0
    6.3301   -2.7500    0.0000 C   0  0  1  0  0  0  0  0  0  0  0  0
    7.1962   -3.2500    0.0000 C   0  0  0  0  0  0  0  0  0  0  0  0
    8.0622   -2.7500    0.0000 C   0  0  1  0  0  0  0  0  0  0  0  0
    8.9282   -3.2500    0.0000 C   0  0  2  0  0  0  0  0  0  0  0  0
    5.4641   -3.2500    0.0000 C   0  0  0  0  0  0  0  0  0  0  0  0
    9.7942   -2.7500    0.0000 C   0  0  0  0  0  0  0  0  0  0  0  0
   10.6603   -3.2500    0.0000 C   0  0  1  0  0  0  0  0  0  0  0  0
    6.3301   -1.7500    0.0000 C   0  0  0  0  0  0  0  0  0  0  0  0
   10.6603   -4.2500    0.0000 C   0  0  0  0  0  0  0  0  0  0  0  0
    5.4641   -4.2500    0.0000 C   0  0  0  0  0  0  0  0  0  0  0  0
    4.5981   -2.7500    0.0000 C   0  0  0  0  0  0  0  0  0  0  0  0
   11.5263   -2.7500    0.0000 C   0  0  0  0  0  0  0  0  0  0  0  0
    5.4641   -1.2500    0.0000 C   0  0  0  0  0  0  0  0  0  0  0  0
   11.5263   -4.7500    0.0000 C   0  0  0  0  0  0  0  0  0  0  0  0
    9.7942   -4.7500    0.0000 C   0  0  0  0  0  0  0  0  0  0  0  0
   13.2583   -2.7500    0.0000 C   0  0  0  0  0  0  0  0  0  0  0  0
   14.1244   -3.2500    0.0000 C   0  0  0  0  0  0  0  0  0  0  0  0
    5.4641   -0.2500    0.0000 C   0  0  0  0  0  0  0  0  0  0  0  0
    4.5981   -1.7500    0.0000 C   0  0  0  0  0  0  0  0  0  0  0  0
    4.5981    0.2500    0.0000 C   0  0  0  0  0  0  0  0  0  0  0  0
    3.7320   -1.2500    0.0000 C   0  0  0  0  0  0  0  0  0  0  0  0
   14.6244   -2.3840    0.0000 C   0  0  0  0  0  0  0  0  0  0  0  0
   13.6244   -4.1160    0.0000 C   0  0  0  0  0  0  0  0  0  0  0  0
    3.7320   -0.2500    0.0000 C   0  0  0  0  0  0  0  0  0  0  0  0
   14.9904   -3.7500    0.0000 C   0  0  0  0  0  0  0  0  0  0  0  0
    5.4641    1.7500    0.0000 C   0  0  0  0  0  0  0  0  0  0  0  0
    5.4641    2.7500    0.0000 C   0  0  0  0  0  0  0  0  0  0  0  0
    2.0000   -0.2500    0.0000 C   0  0  0  0  0  0  0  0  0  0  0  0
    6.3301    3.2500    0.0000 C   0  0  0  0  0  0  0  0  0  0  0  0
    7.1962    4.7500    0.0000 C   0  0  0  0  0  0  0  0  0  0  0  0
    6.8671   -2.4400    0.0000 H   0  0  0  0  0  0  0  0  0  0  0  0
    6.7976   -3.7250    0.0000 H   0  0  0  0  0  0  0  0  0  0  0  0
    7.5947   -3.7250    0.0000 H   0  0  0  0  0  0  0  0  0  0  0  0
    7.5252   -2.4400    0.0000 H   0  0  0  0  0  0  0  0  0  0  0  0
    9.4651   -3.5600    0.0000 H   0  0  0  0  0  0  0  0  0  0  0  0
    5.4641   -2.6300    0.0000 H   0  0  0  0  0  0  0  0  0  0  0  0
   10.1928   -2.2750    0.0000 H   0  0  0  0  0  0  0  0  0  0  0  0
    9.3957   -2.2750    0.0000 H   0  0  0  0  0  0  0  0  0  0  0  0
   11.1972   -3.5600    0.0000 H   0  0  0  0  0  0  0  0  0  0  0  0
    6.9407   -1.8577    0.0000 H   0  0  0  0  0  0  0  0  0  0  0  0
    6.5422   -1.1674    0.0000 H   0  0  0  0  0  0  0  0  0  0  0  0
   11.1972   -3.9400    0.0000 H   0  0  0  0  0  0  0  0  0  0  0  0
    4.9081   -2.2131    0.0000 H   0  0  0  0  0  0  0  0  0  0  0  0
    4.0611   -2.4400    0.0000 H   0  0  0  0  0  0  0  0  0  0  0  0
    4.2881   -3.2869    0.0000 H   0  0  0  0  0  0  0  0  0  0  0  0
    4.8441   -4.2500    0.0000 H   0  0  0  0  0  0  0  0  0  0  0  0
    5.4641   -4.8700    0.0000 H   0  0  0  0  0  0  0  0  0  0  0  0
    6.0841   -4.2500    0.0000 H   0  0  0  0  0  0  0  0  0  0  0  0
    8.5991   -1.4400    0.0000 H   0  0  0  0  0  0  0  0  0  0  0  0
    7.5252   -1.4400    0.0000 H   0  0  0  0  0  0  0  0  0  0  0  0
   11.2163   -5.2869    0.0000 H   0  0  0  0  0  0  0  0  0  0  0  0
   12.0632   -5.0600    0.0000 H   0  0  0  0  0  0  0  0  0  0  0  0
   11.8363   -4.2131    0.0000 H   0  0  0  0  0  0  0  0  0  0  0  0
    9.4842   -4.2131    0.0000 H   0  0  0  0  0  0  0  0  0  0  0  0
    9.2573   -5.0600    0.0000 H   0  0  0  0  0  0  0  0  0  0  0  0
   10.1042   -5.2869    0.0000 H   0  0  0  0  0  0  0  0  0  0  0  0
    8.3913   -4.5600    0.0000 H   0  0  0  0  0  0  0  0  0  0  0  0
   12.3923   -3.8700    0.0000 H   0  0  0  0  0  0  0  0  0  0  0  0
   13.6569   -2.2750    0.0000 H   0  0  0  0  0  0  0  0  0  0  0  0
   12.8598   -2.2750    0.0000 H   0  0  0  0  0  0  0  0  0  0  0  0
    6.0010    0.0600    0.0000 H   0  0  0  0  0  0  0  0  0  0  0  0
    4.5981   -2.3700    0.0000 H   0  0  0  0  0  0  0  0  0  0  0  0
    3.1951   -1.5600    0.0000 H   0  0  0  0  0  0  0  0  0  0  0  0
   15.1613   -2.6940    0.0000 H   0  0  0  0  0  0  0  0  0  0  0  0
   14.9344   -1.8470    0.0000 H   0  0  0  0  0  0  0  0  0  0  0  0
   14.0874   -2.0740    0.0000 H   0  0  0  0  0  0  0  0  0  0  0  0
   13.0874   -3.8060    0.0000 H   0  0  0  0  0  0  0  0  0  0  0  0
   13.3144   -4.6530    0.0000 H   0  0  0  0  0  0  0  0  0  0  0  0
   14.1613   -4.4260    0.0000 H   0  0  0  0  0  0  0  0  0  0  0  0
   16.3933   -3.5600    0.0000 H   0  0  0  0  0  0  0  0  0  0  0  0
   15.8564   -2.6300    0.0000 H   0  0  0  0  0  0  0  0  0  0  0  0
    5.6762    1.1674    0.0000 H   0  0  0  0  0  0  0  0  0  0  0  0
    6.0747    1.8577    0.0000 H   0  0  0  0  0  0  0  0  0  0  0  0
    5.2520    3.3326    0.0000 H   0  0  0  0  0  0  0  0  0  0  0  0
    4.8535    2.6423    0.0000 H   0  0  0  0  0  0  0  0  0  0  0  0
    1.6900    0.2869    0.0000 H   0  0  0  0  0  0  0  0  0  0  0  0
    1.4631   -0.5600    0.0000 H   0  0  0  0  0  0  0  0  0  0  0  0
    2.3100   -0.7869    0.0000 H   0  0  0  0  0  0  0  0  0  0  0  0
    6.5422    2.6674    0.0000 H   0  0  0  0  0  0  0  0  0  0  0  0
    6.9407    3.3577    0.0000 H   0  0  0  0  0  0  0  0  0  0  0  0
    7.5062    4.2131    0.0000 H   0  0  0  0  0  0  0  0  0  0  0  0
    7.7331    5.0600    0.0000 H   0  0  0  0  0  0  0  0  0  0  0  0
    6.8862    5.2869    0.0000 H   0  0  0  0  0  0  0  0  0  0  0  0
 13  1  1  6  0  0  0
  1 66  1  0  0  0  0
  2 21  2  0  0  0  0
  3 29  1  0  0  0  0
  3 35  1  0  0  0  0
  4 33  1  0  0  0  0
  4 37  1  0  0  0  0
  5 34  2  0  0  0  0
  6 38  1  0  0  0  0
  6 39  1  0  0  0  0
 12  7  1  6  0  0  0
  7 58  1  0  0  0  0
  7 59  1  0  0  0  0
  8 21  1  0  0  0  0
  8 25  1  0  0  0  0
  8 67  1  0  0  0  0
  9 34  1  0  0  0  0
  9 79  1  0  0  0  0
  9 80  1  0  0  0  0
 10 11  1  1  0  0  0
 10 14  1  0  0  0  0
 10 17  1  0  0  0  0
 10 40  1  0  0  0  0
 11 12  1  0  0  0  0
 11 41  1  0  0  0  0
 11 42  1  0  0  0  0
 12 13  1  0  0  0  0
 12 43  1  0  0  0  0
 13 15  1  0  0  0  0
 13 44  1  0  0  0  0
 14 19  1  0  0  0  0
 14 20  1  0  0  0  0
 14 45  1  0  0  0  0
 16 15  1  1  0  0  0
 15 46  1  0  0  0  0
 15 47  1  0  0  0  0
 16 18  1  0  0  0  0
 16 21  1  0  0  0  0
 16 48  1  0  0  0  0
 17 22  1  0  0  0  0
 17 49  1  0  0  0  0
 17 50  1  0  0  0  0
 18 23  1  0  0  0  0
 18 24  1  0  0  0  0
 18 51  1  0  0  0  0
 19 55  1  0  0  0  0
 19 56  1  0  0  0  0
 19 57  1  0  0  0  0
 20 52  1  0  0  0  0
 20 53  1  0  0  0  0
 20 54  1  0  0  0  0
 22 27  2  0  0  0  0
 22 28  1  0  0  0  0
 23 60  1  0  0  0  0
 23 61  1  0  0  0  0
 23 62  1  0  0  0  0
 24 63  1  0  0  0  0
 24 64  1  0  0  0  0
 24 65  1  0  0  0  0
 25 26  1  0  0  0  0
 25 68  1  0  0  0  0
 25 69  1  0  0  0  0
 26 31  1  0  0  0  0
 26 32  1  0  0  0  0
 26 34  1  0  0  0  0
 27 29  1  0  0  0  0
 27 70  1  0  0  0  0
 28 30  2  0  0  0  0
 28 71  1  0  0  0  0
 29 33  2  0  0  0  0
 30 33  1  0  0  0  0
 30 72  1  0  0  0  0
 31 73  1  0  0  0  0
 31 74  1  0  0  0  0
 31 75  1  0  0  0  0
 32 76  1  0  0  0  0
 32 77  1  0  0  0  0
 32 78  1  0  0  0  0
 35 36  1  0  0  0  0
 35 81  1  0  0  0  0
 35 82  1  0  0  0  0
 36 38  1  0  0  0  0
 36 83  1  0  0  0  0
 36 84  1  0  0  0  0
 37 85  1  0  0  0  0
 37 86  1  0  0  0  0
 37 87  1  0  0  0  0
 38 88  1  0  0  0  0
 38 89  1  0  0  0  0
 39 90  1  0  0  0  0
 39 91  1  0  0  0  0
 39 92  1  0  0  0  0
M  END
> <PUBCHEM_COMPOUND_CID>
5493444

> <PUBCHEM_COMPOUND_CANONICALIZED>
1

> <PUBCHEM_CACTVS_COMPLEXITY>
717

> <PUBCHEM_CACTVS_HBOND_ACCEPTOR>
7

> <PUBCHEM_CACTVS_HBOND_DONOR>
4

> <PUBCHEM_CACTVS_ROTATABLE_BOND>
19

> <PUBCHEM_CACTVS_SUBSKEYS>
AAADcfB7OAAAAAAAAAAAAAAAAAAAAAAAAAAwAAAAAAAAAAABAAAAHgAQCAAADzzhmAYyBoLABgCIAiFSEAACCAAgIAAIiIEOiIgPNjqE8RqGeCKl1hGKqAe6yfCeoAABAAAAQABAAAIAAACAAAAAAAAAAA==

> <PUBCHEM_IUPAC_OPENEYE_NAME>
(2S,4S,5S,7S)-5-amino-N-(3-amino-2,2-dimethyl-3-oxo-propyl)-4-hydroxy-2-isopropyl-7-[[4-methoxy-3-(3-methoxypropoxy)phenyl]methyl]-8-methyl-nonanamide

> <PUBCHEM_IUPAC_CAS_NAME>
(2S,4S,5S,7S)-5-amino-N-(3-amino-2,2-dimethyl-3-oxopropyl)-4-hydroxy-7-[[4-methoxy-3-(3-methoxypropoxy)phenyl]methyl]-8-methyl-2-propan-2-ylnonanamide

> <PUBCHEM_IUPAC_NAME>
(2S,4S,5S,7S)-5-amino-N-(3-amino-2,2-dimethyl-3-oxopropyl)-4-hydroxy-7-[[4-methoxy-3-(3-methoxypropoxy)phenyl]methyl]-8-methyl-2-propan-2-ylnonanamide

> <PUBCHEM_IUPAC_SYSTEMATIC_NAME>
(2S,4S,5S,7S)-5-azanyl-N-(3-azanyl-2,2-dimethyl-3-oxidanylidene-propyl)-7-[[4-methoxy-3-(3-methoxypropoxy)phenyl]methyl]-8-methyl-4-oxidanyl-2-propan-2-yl-nonanamide

> <PUBCHEM_IUPAC_TRADITIONAL_NAME>
(2S,4S,5S,7S)-5-amino-N-(3-amino-3-keto-2,2-dimethyl-propyl)-4-hydroxy-2-isopropyl-7-[4-methoxy-3-(3-methoxypropoxy)benzyl]-8-methyl-pelargonamide

> <PUBCHEM_IUPAC_INCHI>
InChI=1S/C30H53N3O6/c1-19(2)22(14-21-10-11-26(38-8)27(15-21)39-13-9-12-37-7)16-24(31)25(34)17-23(20(3)4)28(35)33-18-30(5,6)29(32)36/h10-11,15,19-20,22-25,34H,9,12-14,16-18,31H2,1-8H3,(H2,32,36)(H,33,35)/t22-,23-,24-,25-/m0/s1

> <PUBCHEM_IUPAC_INCHIKEY>
UXOWGYHJODZGMF-QORCZRPOSA-N

> <PUBCHEM_XLOGP3_AA>
3.5

> <PUBCHEM_EXACT_MASS>
551.393436

> <PUBCHEM_MOLECULAR_FORMULA>
C30H53N3O6

> <PUBCHEM_MOLECULAR_WEIGHT>
551.75832

> <PUBCHEM_OPENEYE_CAN_SMILES>
CC(C)C(CC1=CC(=C(C=C1)OC)OCCCOC)CC(C(CC(C(C)C)C(=O)NCC(C)(C)C(=O)N)O)N

> <PUBCHEM_OPENEYE_ISO_SMILES>
CC(C)[C@@H](CC1=CC(=C(C=C1)OC)OCCCOC)C[C@@H]([C@H](C[C@@H](C(C)C)C(=O)NCC(C)(C)C(=O)N)O)N

> <PUBCHEM_CACTVS_TPSA>
146

> <PUBCHEM_MONOISOTOPIC_WEIGHT>
551.393436

> <PUBCHEM_TOTAL_CHARGE>
0

> <PUBCHEM_HEAVY_ATOM_COUNT>
39

> <PUBCHEM_ATOM_DEF_STEREO_COUNT>
4

> <PUBCHEM_ATOM_UDEF_STEREO_COUNT>
0

> <PUBCHEM_BOND_DEF_STEREO_COUNT>
0

> <PUBCHEM_BOND_UDEF_STEREO_COUNT>
0

> <PUBCHEM_ISOTOPIC_ATOM_COUNT>
0

> <PUBCHEM_COMPONENT_COUNT>
1

> <PUBCHEM_CACTVS_TAUTO_COUNT>
4

> <PUBCHEM_COORDINATE_TYPE>
1
5
255

> <PUBCHEM_BONDANNOTATIONS>
13  1  6
10  11  5
16  15  5
22  27  8
22  28  8
27  29  8
28  30  8
29  33  8
30  33  8
12  7  6

$$$$
