5636
  -OEChem-12171208152D

 65 65  0     1  0  0  0  0  0999 V2000
   11.9356   -2.5716    0.0000 O   0  0  0  0  0  0  0  0  0  0  0  0
    9.0877   -4.6407    0.0000 O   0  0  0  0  0  0  0  0  0  0  0  0
   10.1755    0.7071    0.0000 O   0  0  0  0  0  0  0  0  0  0  0  0
    2.5896   -4.3211    0.0000 O   0  0  0  0  0  0  0  0  0  0  0  0
    3.1249   -2.6738    0.0000 O   0  0  0  0  0  0  0  0  0  0  0  0
   10.1755   -2.2929    0.0000 C   0  0  3  0  0  0  0  0  0  0  0  0
    9.3665   -2.8807    0.0000 C   0  0  3  0  0  0  0  0  0  0  0  0
   10.9845   -2.8807    0.0000 C   0  0  3  0  0  0  0  0  0  0  0  0
    9.6755   -3.8317    0.0000 C   0  0  3  0  0  0  0  0  0  0  0  0
   10.6755   -3.8317    0.0000 C   0  0  0  0  0  0  0  0  0  0  0  0
   10.1755   -1.2929    0.0000 C   0  0  0  0  0  0  0  0  0  0  0  0
    8.4154   -2.5716    0.0000 C   0  0  0  0  0  0  0  0  0  0  0  0
   11.0415   -0.7929    0.0000 C   0  0  0  0  0  0  0  0  0  0  0  0
    7.6723   -3.2408    0.0000 C   0  0  0  0  0  0  0  0  0  0  0  0
   11.0415    0.2071    0.0000 C   0  0  0  0  0  0  0  0  0  0  0  0
   11.9075    0.7071    0.0000 C   0  0  0  0  0  0  0  0  0  0  0  0
    6.7212   -2.9318    0.0000 C   0  0  0  0  0  0  0  0  0  0  0  0
   11.9075    1.7071    0.0000 C   0  0  0  0  0  0  0  0  0  0  0  0
    5.9781   -3.6009    0.0000 C   0  0  0  0  0  0  0  0  0  0  0  0
   12.7736    2.2071    0.0000 C   0  0  0  0  0  0  0  0  0  0  0  0
    5.0270   -3.2919    0.0000 C   0  0  0  0  0  0  0  0  0  0  0  0
   12.7736    3.2071    0.0000 C   0  0  0  0  0  0  0  0  0  0  0  0
   13.6396    3.7071    0.0000 C   0  0  0  0  0  0  0  0  0  0  0  0
    4.2839   -3.9610    0.0000 C   0  0  0  0  0  0  0  0  0  0  0  0
   13.6396    4.7071    0.0000 C   0  0  0  0  0  0  0  0  0  0  0  0
   14.5056    5.2071    0.0000 C   0  0  0  0  0  0  0  0  0  0  0  0
    3.3328   -3.6520    0.0000 C   0  0  0  0  0  0  0  0  0  0  0  0
    9.4181   -1.9070    0.0000 H   0  0  0  0  0  0  0  0  0  0  0  0
    9.2335   -2.0411    0.0000 H   0  0  0  0  0  0  0  0  0  0  0  0
   11.1175   -2.0411    0.0000 H   0  0  0  0  0  0  0  0  0  0  0  0
    8.8359   -3.6987    0.0000 H   0  0  0  0  0  0  0  0  0  0  0  0
   10.6107   -4.4483    0.0000 H   0  0  0  0  0  0  0  0  0  0  0  0
   11.2819   -3.9606    0.0000 H   0  0  0  0  0  0  0  0  0  0  0  0
    9.9634   -0.7103    0.0000 H   0  0  0  0  0  0  0  0  0  0  0  0
    9.5649   -1.4005    0.0000 H   0  0  0  0  0  0  0  0  0  0  0  0
    8.7065   -2.0242    0.0000 H   0  0  0  0  0  0  0  0  0  0  0  0
    7.9268   -2.1899    0.0000 H   0  0  0  0  0  0  0  0  0  0  0  0
   11.2536   -1.3755    0.0000 H   0  0  0  0  0  0  0  0  0  0  0  0
   11.6521   -0.6852    0.0000 H   0  0  0  0  0  0  0  0  0  0  0  0
   12.3963   -2.9865    0.0000 H   0  0  0  0  0  0  0  0  0  0  0  0
    9.3399   -5.2071    0.0000 H   0  0  0  0  0  0  0  0  0  0  0  0
    7.8012   -3.8472    0.0000 H   0  0  0  0  0  0  0  0  0  0  0  0
   12.1196    0.1245    0.0000 H   0  0  0  0  0  0  0  0  0  0  0  0
   12.5181    0.8148    0.0000 H   0  0  0  0  0  0  0  0  0  0  0  0
    6.5923   -2.3253    0.0000 H   0  0  0  0  0  0  0  0  0  0  0  0
   11.6955    2.2897    0.0000 H   0  0  0  0  0  0  0  0  0  0  0  0
   11.2969    1.5995    0.0000 H   0  0  0  0  0  0  0  0  0  0  0  0
    5.6870   -4.1483    0.0000 H   0  0  0  0  0  0  0  0  0  0  0  0
    6.4666   -3.9826    0.0000 H   0  0  0  0  0  0  0  0  0  0  0  0
   12.9856    1.6245    0.0000 H   0  0  0  0  0  0  0  0  0  0  0  0
   13.3841    2.3148    0.0000 H   0  0  0  0  0  0  0  0  0  0  0  0
    5.3181   -2.7444    0.0000 H   0  0  0  0  0  0  0  0  0  0  0  0
    4.5384   -2.9102    0.0000 H   0  0  0  0  0  0  0  0  0  0  0  0
   12.5615    3.7897    0.0000 H   0  0  0  0  0  0  0  0  0  0  0  0
   12.1630    3.0995    0.0000 H   0  0  0  0  0  0  0  0  0  0  0  0
   13.8516    3.1245    0.0000 H   0  0  0  0  0  0  0  0  0  0  0  0
   14.2502    3.8148    0.0000 H   0  0  0  0  0  0  0  0  0  0  0  0
    3.9928   -4.5084    0.0000 H   0  0  0  0  0  0  0  0  0  0  0  0
    4.7724   -4.3427    0.0000 H   0  0  0  0  0  0  0  0  0  0  0  0
   13.4275    5.2897    0.0000 H   0  0  0  0  0  0  0  0  0  0  0  0
   13.0290    4.5995    0.0000 H   0  0  0  0  0  0  0  0  0  0  0  0
   14.8156    4.6702    0.0000 H   0  0  0  0  0  0  0  0  0  0  0  0
   15.0425    5.5171    0.0000 H   0  0  0  0  0  0  0  0  0  0  0  0
   14.1956    5.7441    0.0000 H   0  0  0  0  0  0  0  0  0  0  0  0
    2.0000   -4.1295    0.0000 H   0  0  0  0  0  0  0  0  0  0  0  0
  1  8  1  0  0  0  0
  1 40  1  0  0  0  0
  2  9  1  0  0  0  0
  2 41  1  0  0  0  0
  3 15  2  0  0  0  0
  4 27  1  0  0  0  0
  4 65  1  0  0  0  0
  5 27  2  0  0  0  0
  6  7  1  0  0  0  0
  6  8  1  0  0  0  0
  6 11  1  0  0  0  0
  6 28  1  0  0  0  0
  7  9  1  0  0  0  0
  7 12  1  0  0  0  0
  7 29  1  0  0  0  0
  8 10  1  0  0  0  0
  8 30  1  0  0  0  0
  9 10  1  0  0  0  0
  9 31  1  0  0  0  0
 10 32  1  0  0  0  0
 10 33  1  0  0  0  0
 11 13  1  0  0  0  0
 11 34  1  0  0  0  0
 11 35  1  0  0  0  0
 12 14  1  0  0  0  0
 12 36  1  0  0  0  0
 12 37  1  0  0  0  0
 13 15  1  0  0  0  0
 13 38  1  0  0  0  0
 13 39  1  0  0  0  0
 14 17  2  3  0  0  0
 14 42  1  0  0  0  0
 15 16  1  0  0  0  0
 16 18  1  0  0  0  0
 16 43  1  0  0  0  0
 16 44  1  0  0  0  0
 17 19  1  0  0  0  0
 17 45  1  0  0  0  0
 18 20  1  0  0  0  0
 18 46  1  0  0  0  0
 18 47  1  0  0  0  0
 19 21  1  0  0  0  0
 19 48  1  0  0  0  0
 19 49  1  0  0  0  0
 20 22  1  0  0  0  0
 20 50  1  0  0  0  0
 20 51  1  0  0  0  0
 21 24  1  0  0  0  0
 21 52  1  0  0  0  0
 21 53  1  0  0  0  0
 22 23  1  0  0  0  0
 22 54  1  0  0  0  0
 22 55  1  0  0  0  0
 23 25  1  0  0  0  0
 23 56  1  0  0  0  0
 23 57  1  0  0  0  0
 24 27  1  0  0  0  0
 24 58  1  0  0  0  0
 24 59  1  0  0  0  0
 25 26  1  0  0  0  0
 25 60  1  0  0  0  0
 25 61  1  0  0  0  0
 26 62  1  0  0  0  0
 26 63  1  0  0  0  0
 26 64  1  0  0  0  0
M  END
> <PUBCHEM_COMPOUND_CID>
5636

> <PUBCHEM_COMPOUND_CANONICALIZED>
1

> <PUBCHEM_CACTVS_COMPLEXITY>
460

> <PUBCHEM_CACTVS_HBOND_ACCEPTOR>
5

> <PUBCHEM_CACTVS_HBOND_DONOR>
3

> <PUBCHEM_CACTVS_ROTATABLE_BOND>
15

> <PUBCHEM_CACTVS_SUBSKEYS>
AAADcfB4OAAAAAAAAAAAAAAAAAAAAYAAAAAAAAAAAAAAAAAAAAAAGgAACAAADRSggAICCAAAAgCIAKDSCAAAAAAgAAAICAEAAAgAEBIAAQAAQAAFgAAIAAPIzODOgAAAAAAAAAAAAAAAAAAAAIQADAAAAA==

> <PUBCHEM_IUPAC_OPENEYE_NAME>
7-[3,5-dihydroxy-2-(3-oxodecyl)cyclopentyl]hept-5-enoic acid

> <PUBCHEM_IUPAC_CAS_NAME>
7-[3,5-dihydroxy-2-(3-oxodecyl)cyclopentyl]-5-heptenoic acid

> <PUBCHEM_IUPAC_NAME>
7-[3,5-dihydroxy-2-(3-oxodecyl)cyclopentyl]hept-5-enoic acid

> <PUBCHEM_IUPAC_SYSTEMATIC_NAME>
7-[3,5-bis(oxidanyl)-2-(3-oxidanylidenedecyl)cyclopentyl]hept-5-enoic acid

> <PUBCHEM_IUPAC_TRADITIONAL_NAME>
7-[3,5-dihydroxy-2-(3-ketodecyl)cyclopentyl]hept-5-enoic acid

> <PUBCHEM_IUPAC_INCHI>
InChI=1S/C22H38O5/c1-2-3-4-5-8-11-17(23)14-15-19-18(20(24)16-21(19)25)12-9-6-7-10-13-22(26)27/h6,9,18-21,24-25H,2-5,7-8,10-16H2,1H3,(H,26,27)

> <PUBCHEM_IUPAC_INCHIKEY>
TVHAZVBUYQMHBC-UHFFFAOYSA-N

> <PUBCHEM_XLOGP3_AA>
3.7

> <PUBCHEM_EXACT_MASS>
382.271924

> <PUBCHEM_MOLECULAR_FORMULA>
C22H38O5

> <PUBCHEM_MOLECULAR_WEIGHT>
382.53412

> <PUBCHEM_OPENEYE_CAN_SMILES>
CCCCCCCC(=O)CCC1C(CC(C1CC=CCCCC(=O)O)O)O

> <PUBCHEM_OPENEYE_ISO_SMILES>
CCCCCCCC(=O)CCC1C(CC(C1CC=CCCCC(=O)O)O)O

> <PUBCHEM_CACTVS_TPSA>
94.8

> <PUBCHEM_MONOISOTOPIC_WEIGHT>
382.271924

> <PUBCHEM_TOTAL_CHARGE>
0

> <PUBCHEM_HEAVY_ATOM_COUNT>
27

> <PUBCHEM_ATOM_DEF_STEREO_COUNT>
0

> <PUBCHEM_ATOM_UDEF_STEREO_COUNT>
4

> <PUBCHEM_BOND_DEF_STEREO_COUNT>
0

> <PUBCHEM_BOND_UDEF_STEREO_COUNT>
1

> <PUBCHEM_ISOTOPIC_ATOM_COUNT>
0

> <PUBCHEM_COMPONENT_COUNT>
1

> <PUBCHEM_CACTVS_TAUTO_COUNT>
3

> <PUBCHEM_COORDINATE_TYPE>
1
5
255

> <PUBCHEM_BONDANNOTATIONS>
14  17  1
6  28  3
7  29  3
8  30  3
9  31  3

$$$$
