5651
  -OEChem-12171208152D

176185  0     1  0  0  0  0  0999 V2000
   10.6602   -0.3451    0.0000 Cl  0  0  0  0  0  0  0  0  0  0  0  0
    7.2808   -0.5349    0.0000 Cl  0  0  0  0  0  0  0  0  0  0  0  0
    9.7942    5.1550    0.0000 O   0  0  0  0  0  0  0  0  0  0  0  0
    8.9282    3.6550    0.0000 O   0  0  0  0  0  0  0  0  0  0  0  0
   10.6603    1.6550    0.0000 O   0  0  0  0  0  0  0  0  0  0  0  0
    8.9282    7.6550    0.0000 O   0  0  0  0  0  0  0  0  0  0  0  0
   10.6602    4.6550    0.0000 O   0  0  0  0  0  0  0  0  0  0  0  0
    8.9282    1.6550    0.0000 O   0  0  0  0  0  0  0  0  0  0  0  0
   12.3923    3.6550    0.0000 O   0  0  0  0  0  0  0  0  0  0  0  0
   13.2583    2.1550    0.0000 O   0  0  0  0  0  0  0  0  0  0  0  0
   10.6603    0.6550    0.0000 O   0  0  0  0  0  0  0  0  0  0  0  0
    7.1962    0.6550    0.0000 O   0  0  0  0  0  0  0  0  0  0  0  0
    8.0609   -3.8450    0.0000 O   0  0  0  0  0  0  0  0  0  0  0  0
   10.6603   -1.3450    0.0000 O   0  0  0  0  0  0  0  0  0  0  0  0
   14.9904   -0.8450    0.0000 O   0  0  0  0  0  0  0  0  0  0  0  0
    2.8660   -0.8450    0.0000 O   0  0  0  0  0  0  0  0  0  0  0  0
    4.5954   -1.8498    0.0000 O   0  0  0  0  0  0  0  0  0  0  0  0
   13.2583   -3.8450    0.0000 O   0  0  0  0  0  0  0  0  0  0  0  0
    2.0000   -2.3450    0.0000 O   0  0  0  0  0  0  0  0  0  0  0  0
   15.8564   -1.3450    0.0000 O   0  0  0  0  0  0  0  0  0  0  0  0
    6.3301   -6.8450    0.0000 O   0  0  0  0  0  0  0  0  0  0  0  0
   10.0262   -4.7109    0.0000 O   0  0  0  0  0  0  0  0  0  0  0  0
    5.4641   -7.3450    0.0000 O   0  0  0  0  0  0  0  0  0  0  0  0
    4.9521   -5.5744    0.0000 O   0  0  0  0  0  0  0  0  0  0  0  0
    5.2737   -3.7906    0.0000 O   0  0  0  0  0  0  0  0  0  0  0  0
    2.0000   -7.3450    0.0000 O   0  0  0  0  0  0  0  0  0  0  0  0
    7.5622    7.0210    0.0000 N   0  0  0  0  0  0  0  0  0  0  0  0
    9.7942   -2.8450    0.0000 N   0  0  0  0  0  0  0  0  0  0  0  0
    7.1962   -2.3450    0.0000 N   0  0  0  0  0  0  0  0  0  0  0  0
   12.3923   -2.3450    0.0000 N   0  0  0  0  0  0  0  0  0  0  0  0
    4.5981   -2.8450    0.0000 N   0  0  0  0  0  0  0  0  0  0  0  0
   14.9904   -2.8450    0.0000 N   0  0  0  0  0  0  0  0  0  0  0  0
    2.8660   -3.8450    0.0000 N   0  0  0  0  0  0  0  0  0  0  0  0
   17.5885   -2.3450    0.0000 N   0  0  0  0  0  0  0  0  0  0  0  0
   11.5263   -5.5770    0.0000 N   0  0  0  0  0  0  0  0  0  0  0  0
    8.0622    6.1550    0.0000 C   0  0  3  0  0  0  0  0  0  0  0  0
    8.9282    6.6550    0.0000 C   0  0  3  0  0  0  0  0  0  0  0  0
    8.0622    5.1550    0.0000 C   0  0  0  0  0  0  0  0  0  0  0  0
    8.9282    4.6550    0.0000 C   0  0  3  0  0  0  0  0  0  0  0  0
    9.7942    6.1550    0.0000 C   0  0  3  0  0  0  0  0  0  0  0  0
    9.7942    3.1550    0.0000 C   0  0  3  0  0  0  0  0  0  0  0  0
   10.6602    3.6550    0.0000 C   0  0  3  0  0  0  0  0  0  0  0  0
    7.0622    6.1550    0.0000 C   0  0  0  0  0  0  0  0  0  0  0  0
   11.5263    3.1550    0.0000 C   0  0  3  0  0  0  0  0  0  0  0  0
    9.7942    2.1550    0.0000 C   0  0  3  0  0  0  0  0  0  0  0  0
   11.5263    2.1550    0.0000 C   0  0  3  0  0  0  0  0  0  0  0  0
   10.6602    6.6550    0.0000 C   0  0  0  0  0  0  0  0  0  0  0  0
   12.3923    1.6550    0.0000 C   0  0  0  0  0  0  0  0  0  0  0  0
    8.9282    0.6550    0.0000 C   0  0  0  0  0  0  0  0  0  0  0  0
    9.7942    0.1550    0.0000 C   0  0  0  0  0  0  0  0  0  0  0  0
    8.0622    0.1550    0.0000 C   0  0  0  0  0  0  0  0  0  0  0  0
    9.7942   -0.8450    0.0000 C   0  0  0  0  0  0  0  0  0  0  0  0
    8.0622   -0.8450    0.0000 C   0  0  0  0  0  0  0  0  0  0  0  0
    8.9282   -1.3450    0.0000 C   0  0  0  0  0  0  0  0  0  0  0  0
    8.9282   -2.3450    0.0000 C   0  0  3  0  0  0  0  0  0  0  0  0
    8.0622   -2.8450    0.0000 C   0  0  0  0  0  0  0  0  0  0  0  0
   11.5263    0.1550    0.0000 C   0  0  0  0  0  0  0  0  0  0  0  0
    6.3301    0.1550    0.0000 C   0  0  0  0  0  0  0  0  0  0  0  0
   10.6603   -2.3450    0.0000 C   0  0  0  0  0  0  0  0  0  0  0  0
    6.3301   -2.8450    0.0000 C   0  0  3  0  0  0  0  0  0  0  0  0
   11.5263   -2.8450    0.0000 C   0  0  3  0  0  0  0  0  0  0  0  0
   11.5263   -0.8450    0.0000 C   0  0  0  0  0  0  0  0  0  0  0  0
   12.3923    0.6550    0.0000 C   0  0  0  0  0  0  0  0  0  0  0  0
    6.3301   -0.8450    0.0000 C   0  0  0  0  0  0  0  0  0  0  0  0
    5.4641    0.6550    0.0000 C   0  0  0  0  0  0  0  0  0  0  0  0
   14.1244   -1.3450    0.0000 C   0  0  3  0  0  0  0  0  0  0  0  0
   14.1244   -2.3450    0.0000 C   0  0  3  0  0  0  0  0  0  0  0  0
   13.2583   -0.8450    0.0000 C   0  0  0  0  0  0  0  0  0  0  0  0
    3.7321   -1.3450    0.0000 C   0  0  3  0  0  0  0  0  0  0  0  0
    4.5981   -0.8450    0.0000 C   0  0  0  0  0  0  0  0  0  0  0  0
    3.7321   -2.3450    0.0000 C   0  0  3  0  0  0  0  0  0  0  0  0
   12.3923   -1.3450    0.0000 C   0  0  0  0  0  0  0  0  0  0  0  0
   13.2583    0.1550    0.0000 C   0  0  0  0  0  0  0  0  0  0  0  0
    5.4641   -1.3450    0.0000 C   0  0  0  0  0  0  0  0  0  0  0  0
    4.5981    0.1550    0.0000 C   0  0  0  0  0  0  0  0  0  0  0  0
    6.3301   -3.8450    0.0000 C   0  0  0  0  0  0  0  0  0  0  0  0
    5.4641   -2.3450    0.0000 C   0  0  0  0  0  0  0  0  0  0  0  0
   11.5263   -3.8450    0.0000 C   0  0  0  0  0  0  0  0  0  0  0  0
   13.2583   -2.8450    0.0000 C   0  0  0  0  0  0  0  0  0  0  0  0
   16.7224   -2.8450    0.0000 C   0  0  3  0  0  0  0  0  0  0  0  0
    2.8660   -2.8450    0.0000 C   0  0  0  0  0  0  0  0  0  0  0  0
   16.7224   -3.8450    0.0000 C   0  0  0  0  0  0  0  0  0  0  0  0
    5.4641   -4.3450    0.0000 C   0  0  0  0  0  0  0  0  0  0  0  0
   15.8564   -2.3450    0.0000 C   0  0  0  0  0  0  0  0  0  0  0  0
   17.5885   -4.3450    0.0000 C   0  0  0  0  0  0  0  0  0  0  0  0
    7.1962   -4.3450    0.0000 C   0  0  0  0  0  0  0  0  0  0  0  0
    5.4641   -5.3450    0.0000 C   0  0  0  0  0  0  0  0  0  0  0  0
    3.7320   -4.3450    0.0000 C   0  0  3  0  0  0  0  0  0  0  0  0
    4.5981   -5.8450    0.0000 C   0  0  0  0  0  0  0  0  0  0  0  0
    3.7320   -5.3450    0.0000 C   0  0  0  0  0  0  0  0  0  0  0  0
   11.0263   -4.7110    0.0000 C   0  0  0  0  0  0  0  0  0  0  0  0
    6.3301   -5.8450    0.0000 C   0  0  0  0  0  0  0  0  0  0  0  0
    7.1962   -5.3450    0.0000 C   0  0  0  0  0  0  0  0  0  0  0  0
   17.5885   -5.3450    0.0000 C   0  0  0  0  0  0  0  0  0  0  0  0
   18.4545   -3.8450    0.0000 C   0  0  0  0  0  0  0  0  0  0  0  0
    4.5981   -6.8450    0.0000 C   0  0  0  0  0  0  0  0  0  0  0  0
    2.8660   -5.8450    0.0000 C   0  0  0  0  0  0  0  0  0  0  0  0
    4.6970   -4.6075    0.0000 C   0  0  0  0  0  0  0  0  0  0  0  0
   18.4545   -2.8450    0.0000 C   0  0  0  0  0  0  0  0  0  0  0  0
    2.8660   -6.8450    0.0000 C   0  0  0  0  0  0  0  0  0  0  0  0
    3.7320   -7.3450    0.0000 C   0  0  0  0  0  0  0  0  0  0  0  0
    8.3912    6.9650    0.0000 H   0  0  0  0  0  0  0  0  0  0  0  0
    7.4516    5.2627    0.0000 H   0  0  0  0  0  0  0  0  0  0  0  0
    7.8501    4.5724    0.0000 H   0  0  0  0  0  0  0  0  0  0  0  0
    8.3913    4.3450    0.0000 H   0  0  0  0  0  0  0  0  0  0  0  0
   10.3311    5.8450    0.0000 H   0  0  0  0  0  0  0  0  0  0  0  0
    9.7942    3.7750    0.0000 H   0  0  0  0  0  0  0  0  0  0  0  0
   11.1972    3.9650    0.0000 H   0  0  0  0  0  0  0  0  0  0  0  0
    7.0622    6.7750    0.0000 H   0  0  0  0  0  0  0  0  0  0  0  0
    6.4422    6.1550    0.0000 H   0  0  0  0  0  0  0  0  0  0  0  0
    7.0622    5.5350    0.0000 H   0  0  0  0  0  0  0  0  0  0  0  0
   11.5263    3.7750    0.0000 H   0  0  0  0  0  0  0  0  0  0  0  0
    9.2573    2.4650    0.0000 H   0  0  0  0  0  0  0  0  0  0  0  0
   11.5263    1.5350    0.0000 H   0  0  0  0  0  0  0  0  0  0  0  0
    6.9422    7.0210    0.0000 H   0  0  0  0  0  0  0  0  0  0  0  0
    7.8722    7.5580    0.0000 H   0  0  0  0  0  0  0  0  0  0  0  0
   10.9702    6.1181    0.0000 H   0  0  0  0  0  0  0  0  0  0  0  0
   11.1972    6.9650    0.0000 H   0  0  0  0  0  0  0  0  0  0  0  0
   10.3502    7.1919    0.0000 H   0  0  0  0  0  0  0  0  0  0  0  0
    9.4651    7.9650    0.0000 H   0  0  0  0  0  0  0  0  0  0  0  0
   11.9938    1.1801    0.0000 H   0  0  0  0  0  0  0  0  0  0  0  0
   12.7908    1.1801    0.0000 H   0  0  0  0  0  0  0  0  0  0  0  0
   11.1972    4.9650    0.0000 H   0  0  0  0  0  0  0  0  0  0  0  0
   12.3923    4.2750    0.0000 H   0  0  0  0  0  0  0  0  0  0  0  0
   13.7953    1.8450    0.0000 H   0  0  0  0  0  0  0  0  0  0  0  0
   10.3312   -1.1550    0.0000 H   0  0  0  0  0  0  0  0  0  0  0  0
    7.5252   -1.1550    0.0000 H   0  0  0  0  0  0  0  0  0  0  0  0
    8.9282   -2.9650    0.0000 H   0  0  0  0  0  0  0  0  0  0  0  0
    9.7942   -3.4650    0.0000 H   0  0  0  0  0  0  0  0  0  0  0  0
    7.1962   -1.7250    0.0000 H   0  0  0  0  0  0  0  0  0  0  0  0
    6.8671   -3.1550    0.0000 H   0  0  0  0  0  0  0  0  0  0  0  0
   12.0632   -3.1550    0.0000 H   0  0  0  0  0  0  0  0  0  0  0  0
   12.3923    1.2750    0.0000 H   0  0  0  0  0  0  0  0  0  0  0  0
    5.4641    1.2750    0.0000 H   0  0  0  0  0  0  0  0  0  0  0  0
   14.1244   -2.9650    0.0000 H   0  0  0  0  0  0  0  0  0  0  0  0
   14.6613   -1.6550    0.0000 H   0  0  0  0  0  0  0  0  0  0  0  0
    3.1951   -1.6550    0.0000 H   0  0  0  0  0  0  0  0  0  0  0  0
    3.1951   -2.0350    0.0000 H   0  0  0  0  0  0  0  0  0  0  0  0
   12.3923   -1.9650    0.0000 H   0  0  0  0  0  0  0  0  0  0  0  0
   13.7953    0.4650    0.0000 H   0  0  0  0  0  0  0  0  0  0  0  0
    5.4641   -1.9650    0.0000 H   0  0  0  0  0  0  0  0  0  0  0  0
    4.0611    0.4650    0.0000 H   0  0  0  0  0  0  0  0  0  0  0  0
   11.8400   -2.0633    0.0000 H   0  0  0  0  0  0  0  0  0  0  0  0
   11.9248   -4.3200    0.0000 H   0  0  0  0  0  0  0  0  0  0  0  0
   10.9274   -3.6845    0.0000 H   0  0  0  0  0  0  0  0  0  0  0  0
    4.5981   -3.4650    0.0000 H   0  0  0  0  0  0  0  0  0  0  0  0
   14.9904   -3.4650    0.0000 H   0  0  0  0  0  0  0  0  0  0  0  0
   16.7224   -2.2250    0.0000 H   0  0  0  0  0  0  0  0  0  0  0  0
   16.1119   -3.7373    0.0000 H   0  0  0  0  0  0  0  0  0  0  0  0
   16.5104   -4.4276    0.0000 H   0  0  0  0  0  0  0  0  0  0  0  0
    4.9272   -4.0350    0.0000 H   0  0  0  0  0  0  0  0  0  0  0  0
   17.0515   -4.6550    0.0000 H   0  0  0  0  0  0  0  0  0  0  0  0
    7.7331   -4.0350    0.0000 H   0  0  0  0  0  0  0  0  0  0  0  0
    3.9704   -3.7726    0.0000 H   0  0  0  0  0  0  0  0  0  0  0  0
    2.3291   -4.1550    0.0000 H   0  0  0  0  0  0  0  0  0  0  0  0
   14.9904   -0.2250    0.0000 H   0  0  0  0  0  0  0  0  0  0  0  0
    2.8660   -0.2250    0.0000 H   0  0  0  0  0  0  0  0  0  0  0  0
    7.7331   -5.6550    0.0000 H   0  0  0  0  0  0  0  0  0  0  0  0
   17.5885   -1.7250    0.0000 H   0  0  0  0  0  0  0  0  0  0  0  0
   18.7645   -4.3819    0.0000 H   0  0  0  0  0  0  0  0  0  0  0  0
   18.9914   -3.5350    0.0000 H   0  0  0  0  0  0  0  0  0  0  0  0
   16.9685   -5.3450    0.0000 H   0  0  0  0  0  0  0  0  0  0  0  0
   18.1445   -3.3080    0.0000 H   0  0  0  0  0  0  0  0  0  0  0  0
   17.5885   -5.9650    0.0000 H   0  0  0  0  0  0  0  0  0  0  0  0
   18.2085   -5.3450    0.0000 H   0  0  0  0  0  0  0  0  0  0  0  0
    2.3291   -5.5350    0.0000 H   0  0  0  0  0  0  0  0  0  0  0  0
   18.1445   -3.3819    0.0000 H   0  0  0  0  0  0  0  0  0  0  0  0
   18.9914   -3.1550    0.0000 H   0  0  0  0  0  0  0  0  0  0  0  0
   18.7645   -2.3080    0.0000 H   0  0  0  0  0  0  0  0  0  0  0  0
   11.2163   -6.1140    0.0000 H   0  0  0  0  0  0  0  0  0  0  0  0
   12.1464   -5.5770    0.0000 H   0  0  0  0  0  0  0  0  0  0  0  0
    3.7320   -7.9650    0.0000 H   0  0  0  0  0  0  0  0  0  0  0  0
    6.8671   -7.1550    0.0000 H   0  0  0  0  0  0  0  0  0  0  0  0
    5.4641   -7.9650    0.0000 H   0  0  0  0  0  0  0  0  0  0  0  0
    5.3888   -6.0145    0.0000 H   0  0  0  0  0  0  0  0  0  0  0  0
    2.0000   -7.9650    0.0000 H   0  0  0  0  0  0  0  0  0  0  0  0
  1 62  1  0  0  0  0
  2 64  1  0  0  0  0
  3 39  1  0  0  0  0
  3 40  1  0  0  0  0
  4 39  1  0  0  0  0
  4 41  1  0  0  0  0
  5 45  1  0  0  0  0
  5 46  1  0  0  0  0
  6 37  1  0  0  0  0
  6120  1  0  0  0  0
  7 42  1  0  0  0  0
  7123  1  0  0  0  0
  8 45  1  0  0  0  0
  8 49  1  0  0  0  0
  9 44  1  0  0  0  0
  9124  1  0  0  0  0
 10 48  1  0  0  0  0
 10125  1  0  0  0  0
 11 50  1  0  0  0  0
 11 57  1  0  0  0  0
 12 51  1  0  0  0  0
 12 58  1  0  0  0  0
 13 56  2  0  0  0  0
 14 59  2  0  0  0  0
 15 66  1  0  0  0  0
 15156  1  0  0  0  0
 16 69  1  0  0  0  0
 16157  1  0  0  0  0
 17 77  2  0  0  0  0
 18 79  2  0  0  0  0
 19 81  2  0  0  0  0
 20 84  2  0  0  0  0
 21 92  1  0  0  0  0
 21173  1  0  0  0  0
 22 91  2  0  0  0  0
 23 96  1  0  0  0  0
 23174  1  0  0  0  0
 24 98  1  0  0  0  0
 24175  1  0  0  0  0
 25 98  2  0  0  0  0
 26100  1  0  0  0  0
 26176  1  0  0  0  0
 27 36  1  0  0  0  0
 27115  1  0  0  0  0
 27116  1  0  0  0  0
 28 55  1  0  0  0  0
 28 59  1  0  0  0  0
 28129  1  0  0  0  0
 29 56  1  0  0  0  0
 29 60  1  0  0  0  0
 29130  1  0  0  0  0
 30 61  1  0  0  0  0
 30 79  1  0  0  0  0
 30143  1  0  0  0  0
 31 71  1  0  0  0  0
 31 77  1  0  0  0  0
 31146  1  0  0  0  0
 32 67  1  0  0  0  0
 32 84  1  0  0  0  0
 32147  1  0  0  0  0
 33 81  1  0  0  0  0
 33 88  1  0  0  0  0
 33155  1  0  0  0  0
 34 80  1  0  0  0  0
 34 99  1  0  0  0  0
 34159  1  0  0  0  0
 35 91  1  0  0  0  0
 35170  1  0  0  0  0
 35171  1  0  0  0  0
 36 37  1  0  0  0  0
 36 38  1  0  0  0  0
 36 43  1  0  0  0  0
 37 40  1  0  0  0  0
 37102  1  0  0  0  0
 38 39  1  0  0  0  0
 38103  1  0  0  0  0
 38104  1  0  0  0  0
 39105  1  0  0  0  0
 40 47  1  0  0  0  0
 40106  1  0  0  0  0
 41 42  1  0  0  0  0
 41 45  1  0  0  0  0
 41107  1  0  0  0  0
 42 44  1  0  0  0  0
 42108  1  0  0  0  0
 43109  1  0  0  0  0
 43110  1  0  0  0  0
 43111  1  0  0  0  0
 44 46  1  0  0  0  0
 44112  1  0  0  0  0
 45113  1  0  0  0  0
 46 48  1  0  0  0  0
 46114  1  0  0  0  0
 47117  1  0  0  0  0
 47118  1  0  0  0  0
 47119  1  0  0  0  0
 48121  1  0  0  0  0
 48122  1  0  0  0  0
 49 50  1  0  0  0  0
 49 51  2  0  0  0  0
 50 52  2  0  0  0  0
 51 53  1  0  0  0  0
 52 54  1  0  0  0  0
 52126  1  0  0  0  0
 53 54  2  0  0  0  0
 53127  1  0  0  0  0
 54 55  1  0  0  0  0
 55 56  1  0  0  0  0
 55128  1  0  0  0  0
 57 62  2  0  0  0  0
 57 63  1  0  0  0  0
 58 64  2  0  0  0  0
 58 65  1  0  0  0  0
 59 61  1  0  0  0  0
 60 76  1  0  0  0  0
 60 77  1  0  0  0  0
 60131  1  0  0  0  0
 61 78  1  0  0  0  0
 61132  1  0  0  0  0
 62 72  1  0  0  0  0
 63 73  2  0  0  0  0
 63133  1  0  0  0  0
 64 74  1  0  0  0  0
 65 75  2  0  0  0  0
 65134  1  0  0  0  0
 66 67  1  0  0  0  0
 66 68  1  0  0  0  0
 66136  1  0  0  0  0
 67 79  1  0  0  0  0
 67135  1  0  0  0  0
 68 72  2  0  0  0  0
 68 73  1  0  0  0  0
 69 70  1  0  0  0  0
 69 71  1  0  0  0  0
 69137  1  0  0  0  0
 70 74  2  0  0  0  0
 70 75  1  0  0  0  0
 71 81  1  0  0  0  0
 71138  1  0  0  0  0
 72139  1  0  0  0  0
 73140  1  0  0  0  0
 74141  1  0  0  0  0
 75142  1  0  0  0  0
 76 83  2  0  0  0  0
 76 86  1  0  0  0  0
 78 91  1  0  0  0  0
 78144  1  0  0  0  0
 78145  1  0  0  0  0
 80 82  1  0  0  0  0
 80 84  1  0  0  0  0
 80148  1  0  0  0  0
 82 85  1  0  0  0  0
 82149  1  0  0  0  0
 82150  1  0  0  0  0
 83 87  1  0  0  0  0
 83151  1  0  0  0  0
 85 94  1  0  0  0  0
 85 95  1  0  0  0  0
 85152  1  0  0  0  0
 86 93  2  0  0  0  0
 86153  1  0  0  0  0
 87 89  1  0  0  0  0
 87 92  2  0  0  0  0
 88 90  1  0  0  0  0
 88 98  1  0  0  0  0
 88154  1  0  0  0  0
 89 90  2  0  0  0  0
 89 96  1  0  0  0  0
 90 97  1  0  0  0  0
 92 93  1  0  0  0  0
 93158  1  0  0  0  0
 94162  1  0  0  0  0
 94164  1  0  0  0  0
 94165  1  0  0  0  0
 95160  1  0  0  0  0
 95161  1  0  0  0  0
 95163  1  0  0  0  0
 96101  2  0  0  0  0
 97100  2  0  0  0  0
 97166  1  0  0  0  0
 99167  1  0  0  0  0
 99168  1  0  0  0  0
 99169  1  0  0  0  0
100101  1  0  0  0  0
101172  1  0  0  0  0
M  END
> <PUBCHEM_COMPOUND_CID>
5651

> <PUBCHEM_COMPOUND_CANONICALIZED>
1

> <PUBCHEM_CACTVS_COMPLEXITY>
2960

> <PUBCHEM_CACTVS_HBOND_ACCEPTOR>
26

> <PUBCHEM_CACTVS_HBOND_DONOR>
19

> <PUBCHEM_CACTVS_ROTATABLE_BOND>
13

> <PUBCHEM_CACTVS_SUBSKEYS>
AAADcfB//gAGAAAAAAAAAAAAAAAAAAAAAAA0aMGDAAAAAAABVAAAHgIQCAAADb7xmCcyDoLABgCIAiHSGACCCAAgJUAIiIGOj4gfdz+H9zu2eCrn9hWfuAf9/P/OoAADKAAYSABAAAZQADCQAAAAAAAAAA==

> <PUBCHEM_IUPAC_INCHI>
InChI=1S/C66H75Cl2N9O24/c1-23(2)12-34(71-5)58(88)76-49-51(83)26-7-10-38(32(67)14-26)97-40-16-28-17-41(55(40)101-65-56(54(86)53(85)42(22-78)99-65)100-44-21-66(4,70)57(87)24(3)96-44)98-39-11-8-27(15-33(39)68)52(84)50-63(93)75-48(64(94)95)31-18-29(79)19-37(81)45(31)30-13-25(6-9-36(30)80)46(60(90)77-50)74-61(91)47(28)73-59(89)35(20-43(69)82)72-62(49)92/h6-11,13-19,23-24,34-35,42,44,46-54,56-57,65,71,78-81,83-87H,12,20-22,70H2,1-5H3,(H2,69,82)(H,72,92)(H,73,89)(H,74,91)(H,75,93)(H,76,88)(H,77,90)(H,94,95)

> <PUBCHEM_IUPAC_INCHIKEY>
MYPYJXKWCTUITO-UHFFFAOYSA-N

> <PUBCHEM_XLOGP3_AA>
-2.6

> <PUBCHEM_EXACT_MASS>
1447.4302

> <PUBCHEM_MOLECULAR_FORMULA>
C66H75Cl2N9O24

> <PUBCHEM_MOLECULAR_WEIGHT>
1449.2536

> <PUBCHEM_OPENEYE_CAN_SMILES>
CC1C(C(CC(O1)OC2C(C(C(OC2OC3=C4C=C5C=C3OC6=C(C=C(C=C6)C(C(C(=O)NC(C(=O)NC5C(=O)NC7C8=CC(=C(C=C8)O)C9=C(C=C(C=C9C(NC(=O)C(C(C1=CC(=C(O4)C=C1)Cl)O)NC7=O)C(=O)O)O)O)CC(=O)N)NC(=O)C(CC(C)C)NC)O)Cl)CO)O)O)(C)N)O

> <PUBCHEM_OPENEYE_ISO_SMILES>
CC1C(C(CC(O1)OC2C(C(C(OC2OC3=C4C=C5C=C3OC6=C(C=C(C=C6)C(C(C(=O)NC(C(=O)NC5C(=O)NC7C8=CC(=C(C=C8)O)C9=C(C=C(C=C9C(NC(=O)C(C(C1=CC(=C(O4)C=C1)Cl)O)NC7=O)C(=O)O)O)O)CC(=O)N)NC(=O)C(CC(C)C)NC)O)Cl)CO)O)O)(C)N)O

> <PUBCHEM_CACTVS_TPSA>
531

> <PUBCHEM_MONOISOTOPIC_WEIGHT>
1447.4302

> <PUBCHEM_TOTAL_CHARGE>
0

> <PUBCHEM_HEAVY_ATOM_COUNT>
101

> <PUBCHEM_ATOM_DEF_STEREO_COUNT>
0

> <PUBCHEM_ATOM_UDEF_STEREO_COUNT>
18

> <PUBCHEM_BOND_DEF_STEREO_COUNT>
0

> <PUBCHEM_BOND_UDEF_STEREO_COUNT>
0

> <PUBCHEM_ISOTOPIC_ATOM_COUNT>
0

> <PUBCHEM_COMPONENT_COUNT>
1

> <PUBCHEM_CACTVS_TAUTO_COUNT>
970

> <PUBCHEM_COORDINATE_TYPE>
1
5
255

> <PUBCHEM_BONDANNOTATIONS>
100  101  8
66  15  3
69  16  3
36  27  3
67  32  3
39  4  3
41  4  3
40  47  3
46  48  3
49  50  8
49  51  8
50  52  8
51  53  8
52  54  8
53  54  8
55  56  3
57  62  8
57  63  8
58  64  8
58  65  8
37  6  3
60  77  3
61  78  3
62  72  8
63  73  8
64  74  8
65  75  8
68  72  8
68  73  8
42  7  3
70  74  8
70  75  8
71  81  3
76  83  8
76  86  8
45  8  3
80  82  3
83  87  8
86  93  8
87  92  8
88  98  3
89  90  8
89  96  8
44  9  3
90  97  8
92  93  8
96  101  8
97  100  8

$$$$
