60754
  -OEChem-12171208202D

 59 56  0     1  0  0  0  0  0999 V2000
    1.4030    3.0000    0.0000 Gd  0  1  0  0  0  0  0  0  0  0  0  0
    2.2690    2.5000    0.0000 O   0  5  0  0  0  0  0  0  0  0  0  0
    3.1350    4.0000    0.0000 O   0  0  0  0  0  0  0  0  0  0  0  0
    9.1972    1.5000    0.0000 O   0  0  0  0  0  0  0  0  0  0  0  0
    2.2690    4.5000    0.0000 O   0  0  0  0  0  0  0  0  0  0  0  0
    6.5991    0.0000    0.0000 O   0  5  0  0  0  0  0  0  0  0  0  0
    5.7331    7.5000    0.0000 O   0  5  0  0  0  0  0  0  0  0  0  0
    5.7331    1.5000    0.0000 O   0  0  0  0  0  0  0  0  0  0  0  0
    4.0010    7.5000    0.0000 O   0  0  0  0  0  0  0  0  0  0  0  0
    5.7331    9.5000    0.0000 O   0  0  0  0  0  0  0  0  0  0  0  0
    4.8671    3.0000    0.0000 N   0  0  0  0  0  0  0  0  0  0  0  0
    7.4651    2.5000    0.0000 N   0  0  3  0  0  0  0  0  0  0  0  0
    4.0010    5.5000    0.0000 N   0  0  3  0  0  0  0  0  0  0  0  0
   10.0632    3.0000    0.0000 N   0  0  0  0  0  0  0  0  0  0  0  0
    1.4030    6.0000    0.0000 N   0  0  0  0  0  0  0  0  0  0  0  0
    5.7331    2.5000    0.0000 C   0  0  0  0  0  0  0  0  0  0  0  0
    4.8671    4.0000    0.0000 C   0  0  0  0  0  0  0  0  0  0  0  0
    6.5991    3.0000    0.0000 C   0  0  0  0  0  0  0  0  0  0  0  0
    4.0010    4.5000    0.0000 C   0  0  0  0  0  0  0  0  0  0  0  0
    4.0010    2.5000    0.0000 C   0  0  0  0  0  0  0  0  0  0  0  0
    8.3312    3.0000    0.0000 C   0  0  0  0  0  0  0  0  0  0  0  0
    3.1350    6.0000    0.0000 C   0  0  0  0  0  0  0  0  0  0  0  0
    7.4651    1.5000    0.0000 C   0  0  0  0  0  0  0  0  0  0  0  0
    4.8671    6.0000    0.0000 C   0  0  0  0  0  0  0  0  0  0  0  0
    3.1350    3.0000    0.0000 C   0  0  0  0  0  0  0  0  0  0  0  0
    9.1972    2.5000    0.0000 C   0  0  0  0  0  0  0  0  0  0  0  0
    2.2690    5.5000    0.0000 C   0  0  0  0  0  0  0  0  0  0  0  0
    6.5991    1.0000    0.0000 C   0  0  0  0  0  0  0  0  0  0  0  0
    4.8671    7.0000    0.0000 C   0  0  0  0  0  0  0  0  0  0  0  0
   10.9292    2.5000    0.0000 C   0  0  0  0  0  0  0  0  0  0  0  0
    0.5369    5.5000    0.0000 C   0  0  0  0  0  0  0  0  0  0  0  0
    5.3346    2.0250    0.0000 H   0  0  0  0  0  0  0  0  0  0  0  0
    6.1316    2.0250    0.0000 H   0  0  0  0  0  0  0  0  0  0  0  0
    5.4776    3.8923    0.0000 H   0  0  0  0  0  0  0  0  0  0  0  0
    5.0791    4.5826    0.0000 H   0  0  0  0  0  0  0  0  0  0  0  0
    3.3905    4.6077    0.0000 H   0  0  0  0  0  0  0  0  0  0  0  0
    3.7890    3.9174    0.0000 H   0  0  0  0  0  0  0  0  0  0  0  0
    6.9976    3.4750    0.0000 H   0  0  0  0  0  0  0  0  0  0  0  0
    6.2006    3.4750    0.0000 H   0  0  0  0  0  0  0  0  0  0  0  0
    3.6025    2.0250    0.0000 H   0  0  0  0  0  0  0  0  0  0  0  0
    4.3996    2.0250    0.0000 H   0  0  0  0  0  0  0  0  0  0  0  0
    3.5335    6.4750    0.0000 H   0  0  0  0  0  0  0  0  0  0  0  0
    2.7365    6.4750    0.0000 H   0  0  0  0  0  0  0  0  0  0  0  0
    8.7297    3.4750    0.0000 H   0  0  0  0  0  0  0  0  0  0  0  0
    7.9326    3.4750    0.0000 H   0  0  0  0  0  0  0  0  0  0  0  0
    5.0791    5.4174    0.0000 H   0  0  0  0  0  0  0  0  0  0  0  0
    5.4776    6.1077    0.0000 H   0  0  0  0  0  0  0  0  0  0  0  0
    7.6772    0.9174    0.0000 H   0  0  0  0  0  0  0  0  0  0  0  0
    8.0757    1.6077    0.0000 H   0  0  0  0  0  0  0  0  0  0  0  0
    1.4030    6.6200    0.0000 H   0  0  0  0  0  0  0  0  0  0  0  0
   10.0632    3.6200    0.0000 H   0  0  0  0  0  0  0  0  0  0  0  0
    0.2269    6.0369    0.0000 H   0  0  0  0  0  0  0  0  0  0  0  0
    0.0000    5.1900    0.0000 H   0  0  0  0  0  0  0  0  0  0  0  0
    0.8469    4.9631    0.0000 H   0  0  0  0  0  0  0  0  0  0  0  0
   10.6192    1.9631    0.0000 H   0  0  0  0  0  0  0  0  0  0  0  0
   11.4662    2.1900    0.0000 H   0  0  0  0  0  0  0  0  0  0  0  0
   11.2392    3.0369    0.0000 H   0  0  0  0  0  0  0  0  0  0  0  0
    6.2700    9.8100    0.0000 H   0  0  0  0  0  0  0  0  0  0  0  0
    5.1962    9.8100    0.0000 H   0  0  0  0  0  0  0  0  0  0  0  0
  2 25  1  0  0  0  0
  3 25  2  0  0  0  0
  4 26  2  0  0  0  0
  5 27  2  0  0  0  0
  6 28  1  0  0  0  0
  7 29  1  0  0  0  0
  8 28  2  0  0  0  0
  9 29  2  0  0  0  0
 10 58  1  0  0  0  0
 10 59  1  0  0  0  0
 11 16  1  0  0  0  0
 11 17  1  0  0  0  0
 11 20  1  0  0  0  0
 12 18  1  0  0  0  0
 12 21  1  0  0  0  0
 12 23  1  0  0  0  0
 13 19  1  0  0  0  0
 13 22  1  0  0  0  0
 13 24  1  0  0  0  0
 14 26  1  0  0  0  0
 14 30  1  0  0  0  0
 14 51  1  0  0  0  0
 15 27  1  0  0  0  0
 15 31  1  0  0  0  0
 15 50  1  0  0  0  0
 16 18  1  0  0  0  0
 16 32  1  0  0  0  0
 16 33  1  0  0  0  0
 17 19  1  0  0  0  0
 17 34  1  0  0  0  0
 17 35  1  0  0  0  0
 18 38  1  0  0  0  0
 18 39  1  0  0  0  0
 19 36  1  0  0  0  0
 19 37  1  0  0  0  0
 20 25  1  0  0  0  0
 20 40  1  0  0  0  0
 20 41  1  0  0  0  0
 21 26  1  0  0  0  0
 21 44  1  0  0  0  0
 21 45  1  0  0  0  0
 22 27  1  0  0  0  0
 22 42  1  0  0  0  0
 22 43  1  0  0  0  0
 23 28  1  0  0  0  0
 23 48  1  0  0  0  0
 23 49  1  0  0  0  0
 24 29  1  0  0  0  0
 24 46  1  0  0  0  0
 24 47  1  0  0  0  0
 30 55  1  0  0  0  0
 30 56  1  0  0  0  0
 30 57  1  0  0  0  0
 31 52  1  0  0  0  0
 31 53  1  0  0  0  0
 31 54  1  0  0  0  0
M  CHG  4   1   3   2  -1   6  -1   7  -1
M  END
> <PUBCHEM_COMPOUND_CID>
60754

> <PUBCHEM_COMPOUND_CANONICALIZED>
1

> <PUBCHEM_CACTVS_COMPLEXITY>
527

> <PUBCHEM_CACTVS_HBOND_ACCEPTOR>
12

> <PUBCHEM_CACTVS_HBOND_DONOR>
3

> <PUBCHEM_CACTVS_ROTATABLE_BOND>
13

> <PUBCHEM_CACTVS_SUBSKEYS>
AAADceB7vAAAAAAAAAAAAAAgAAAAAAAAAAAAAAAAAAAAAAAAAAAAHgAQCAAAAADBgAQCCAPAAAAIAAGQGAAAAAAAAAAAAICIAAACQAAAACAQAAAAEgCQAAAAAAAAAAAAAAAAAAAAAAAAAAAAAAAAAAAAAA==

> <PUBCHEM_IUPAC_OPENEYE_NAME>
2-[bis[2-[carboxylatomethyl-[2-(methylamino)-2-oxo-ethyl]amino]ethyl]amino]acetate;gadolinium(3+);hydrate

> <PUBCHEM_IUPAC_CAS_NAME>
2-[bis[2-[carboxylatomethyl-[2-(methylamino)-2-oxoethyl]amino]ethyl]amino]acetate;gadolinium(3+);hydrate

> <PUBCHEM_IUPAC_NAME>
2-[bis[2-[carboxylatomethyl-[2-(methylamino)-2-oxoethyl]amino]ethyl]amino]acetate;gadolinium(3+);hydrate

> <PUBCHEM_IUPAC_SYSTEMATIC_NAME>
2-[bis[2-[[2-(methylamino)-2-oxidanylidene-ethyl]-(2-oxidanidyl-2-oxidanylidene-ethyl)amino]ethyl]amino]ethanoate;gadolinium(3+);hydrate

> <PUBCHEM_IUPAC_TRADITIONAL_NAME>
2-[bis[2-[carboxylatomethyl-[2-keto-2-(methylamino)ethyl]amino]ethyl]amino]acetate;gadolinium(3+);hydrate

> <PUBCHEM_IUPAC_INCHI>
InChI=1S/C16H29N5O8.Gd.H2O/c1-17-12(22)7-20(10-15(26)27)5-3-19(9-14(24)25)4-6-21(11-16(28)29)8-13(23)18-2;;/h3-11H2,1-2H3,(H,17,22)(H,18,23)(H,24,25)(H,26,27)(H,28,29);;1H2/q;+3;/p-3

> <PUBCHEM_IUPAC_INCHIKEY>
XPCLDSMKWNNKOM-UHFFFAOYSA-K

> <PUBCHEM_EXACT_MASS>
592.112806

> <PUBCHEM_MOLECULAR_FORMULA>
C16H28GdN5O9

> <PUBCHEM_MOLECULAR_WEIGHT>
591.67162

> <PUBCHEM_OPENEYE_CAN_SMILES>
CNC(=O)CN(CCN(CCN(CC(=O)NC)CC(=O)[O-])CC(=O)[O-])CC(=O)[O-].O.[Gd+3]

> <PUBCHEM_OPENEYE_ISO_SMILES>
CNC(=O)CN(CCN(CCN(CC(=O)NC)CC(=O)[O-])CC(=O)[O-])CC(=O)[O-].O.[Gd+3]

> <PUBCHEM_CACTVS_TPSA>
189

> <PUBCHEM_MONOISOTOPIC_WEIGHT>
592.112806

> <PUBCHEM_TOTAL_CHARGE>
0

> <PUBCHEM_HEAVY_ATOM_COUNT>
31

> <PUBCHEM_ATOM_DEF_STEREO_COUNT>
0

> <PUBCHEM_ATOM_UDEF_STEREO_COUNT>
0

> <PUBCHEM_BOND_DEF_STEREO_COUNT>
0

> <PUBCHEM_BOND_UDEF_STEREO_COUNT>
0

> <PUBCHEM_ISOTOPIC_ATOM_COUNT>
0

> <PUBCHEM_COMPONENT_COUNT>
3

> <PUBCHEM_CACTVS_TAUTO_COUNT>
3

> <PUBCHEM_COORDINATE_TYPE>
1
5
255

$$$$
