60871
  -OEChem-12171208202D

 66 67  0     0  0  0  0  0  0999 V2000
    7.5673   -1.0821    0.0000 P   0  0  0  0  0  0  0  0  0  0  0  0
    6.2781    0.0746    0.0000 O   0  0  0  0  0  0  0  0  0  0  0  0
    9.1671   -3.1894    0.0000 O   0  0  0  0  0  0  0  0  0  0  0  0
    9.6745    0.5177    0.0000 O   0  0  0  0  0  0  0  0  0  0  0  0
    7.8779   -2.0326    0.0000 O   0  0  0  0  0  0  0  0  0  0  0  0
    8.5178   -0.7714    0.0000 O   0  0  0  0  0  0  0  0  0  0  0  0
   10.8134   -2.6513    0.0000 O   0  0  0  0  0  0  0  0  0  0  0  0
    9.1364    2.1641    0.0000 O   0  0  0  0  0  0  0  0  0  0  0  0
    6.6168   -1.3928    0.0000 O   0  0  0  0  0  0  0  0  0  0  0  0
    4.6783    2.1819    0.0000 N   0  0  0  0  0  0  0  0  0  0  0  0
    4.6783    3.7914    0.0000 N   0  0  0  0  0  0  0  0  0  0  0  0
    2.8660    1.9866    0.0000 N   0  0  0  0  0  0  0  0  0  0  0  0
    2.0000    3.4866    0.0000 N   0  0  0  0  0  0  0  0  0  0  0  0
    2.8660    4.9866    0.0000 N   0  0  0  0  0  0  0  0  0  0  0  0
   10.8313    1.8069    0.0000 C   0  0  0  0  0  0  0  0  0  0  0  0
   10.4563   -4.3461    0.0000 C   0  0  0  0  0  0  0  0  0  0  0  0
   10.7669   -5.2966    0.0000 C   0  0  0  0  0  0  0  0  0  0  0  0
   11.4068   -4.0354    0.0000 C   0  0  0  0  0  0  0  0  0  0  0  0
    9.5058   -4.6568    0.0000 C   0  0  0  0  0  0  0  0  0  0  0  0
   11.7818    2.1176    0.0000 C   0  0  0  0  0  0  0  0  0  0  0  0
   10.5206    2.7574    0.0000 C   0  0  0  0  0  0  0  0  0  0  0  0
   11.1419    0.8564    0.0000 C   0  0  0  0  0  0  0  0  0  0  0  0
   10.1456   -3.3956    0.0000 C   0  0  0  0  0  0  0  0  0  0  0  0
    9.8808    1.4962    0.0000 C   0  0  0  0  0  0  0  0  0  0  0  0
    4.9889    1.2314    0.0000 C   0  0  0  0  0  0  0  0  0  0  0  0
    5.9674    1.0252    0.0000 C   0  0  0  0  0  0  0  0  0  0  0  0
    7.2566   -0.1316    0.0000 C   0  0  0  0  0  0  0  0  0  0  0  0
    3.7320    2.4866    0.0000 C   0  0  0  0  0  0  0  0  0  0  0  0
    8.7240    0.2071    0.0000 C   0  0  0  0  0  0  0  0  0  0  0  0
    8.8564   -2.2388    0.0000 C   0  0  0  0  0  0  0  0  0  0  0  0
    3.7320    3.4866    0.0000 C   0  0  0  0  0  0  0  0  0  0  0  0
    5.2619    2.9866    0.0000 C   0  0  0  0  0  0  0  0  0  0  0  0
    2.8660    3.9866    0.0000 C   0  0  0  0  0  0  0  0  0  0  0  0
    2.0000    2.4866    0.0000 C   0  0  0  0  0  0  0  0  0  0  0  0
   10.5526    0.6638    0.0000 H   0  0  0  0  0  0  0  0  0  0  0  0
   11.3345    0.2670    0.0000 H   0  0  0  0  0  0  0  0  0  0  0  0
   10.1776   -5.4892    0.0000 H   0  0  0  0  0  0  0  0  0  0  0  0
   10.9595   -5.8860    0.0000 H   0  0  0  0  0  0  0  0  0  0  0  0
   11.3563   -5.1040    0.0000 H   0  0  0  0  0  0  0  0  0  0  0  0
   11.5994   -4.6248    0.0000 H   0  0  0  0  0  0  0  0  0  0  0  0
   11.9961   -3.8428    0.0000 H   0  0  0  0  0  0  0  0  0  0  0  0
   11.2142   -3.4461    0.0000 H   0  0  0  0  0  0  0  0  0  0  0  0
    9.3131   -4.0674    0.0000 H   0  0  0  0  0  0  0  0  0  0  0  0
    8.9164   -4.8494    0.0000 H   0  0  0  0  0  0  0  0  0  0  0  0
    9.6984   -5.2461    0.0000 H   0  0  0  0  0  0  0  0  0  0  0  0
   11.9744    1.5282    0.0000 H   0  0  0  0  0  0  0  0  0  0  0  0
   12.3711    2.3102    0.0000 H   0  0  0  0  0  0  0  0  0  0  0  0
   11.5892    2.7069    0.0000 H   0  0  0  0  0  0  0  0  0  0  0  0
   11.1099    2.9500    0.0000 H   0  0  0  0  0  0  0  0  0  0  0  0
   10.3280    3.3467    0.0000 H   0  0  0  0  0  0  0  0  0  0  0  0
    9.9313    2.5648    0.0000 H   0  0  0  0  0  0  0  0  0  0  0  0
   11.7313    1.0490    0.0000 H   0  0  0  0  0  0  0  0  0  0  0  0
    4.3751    1.1440    0.0000 H   0  0  0  0  0  0  0  0  0  0  0  0
    4.9684    0.6117    0.0000 H   0  0  0  0  0  0  0  0  0  0  0  0
    6.5812    1.1125    0.0000 H   0  0  0  0  0  0  0  0  0  0  0  0
    5.9880    1.6448    0.0000 H   0  0  0  0  0  0  0  0  0  0  0  0
    7.8704   -0.0442    0.0000 H   0  0  0  0  0  0  0  0  0  0  0  0
    7.2772    0.4881    0.0000 H   0  0  0  0  0  0  0  0  0  0  0  0
    9.4702   -2.1515    0.0000 H   0  0  0  0  0  0  0  0  0  0  0  0
    8.8770   -1.6192    0.0000 H   0  0  0  0  0  0  0  0  0  0  0  0
    8.6367    0.8209    0.0000 H   0  0  0  0  0  0  0  0  0  0  0  0
    8.1044    0.2276    0.0000 H   0  0  0  0  0  0  0  0  0  0  0  0
    5.8819    2.9866    0.0000 H   0  0  0  0  0  0  0  0  0  0  0  0
    1.4631    2.1766    0.0000 H   0  0  0  0  0  0  0  0  0  0  0  0
    2.3291    5.2966    0.0000 H   0  0  0  0  0  0  0  0  0  0  0  0
    3.4030    5.2966    0.0000 H   0  0  0  0  0  0  0  0  0  0  0  0
  1  5  1  0  0  0  0
  1  6  1  0  0  0  0
  1  9  2  0  0  0  0
  1 27  1  0  0  0  0
  2 26  1  0  0  0  0
  2 27  1  0  0  0  0
  3 23  1  0  0  0  0
  3 30  1  0  0  0  0
  4 24  1  0  0  0  0
  4 29  1  0  0  0  0
  5 30  1  0  0  0  0
  6 29  1  0  0  0  0
  7 23  2  0  0  0  0
  8 24  2  0  0  0  0
 10 25  1  0  0  0  0
 10 28  1  0  0  0  0
 10 32  1  0  0  0  0
 11 31  1  0  0  0  0
 11 32  2  0  0  0  0
 12 28  2  0  0  0  0
 12 34  1  0  0  0  0
 13 33  1  0  0  0  0
 13 34  2  0  0  0  0
 14 33  1  0  0  0  0
 14 65  1  0  0  0  0
 14 66  1  0  0  0  0
 15 20  1  0  0  0  0
 15 21  1  0  0  0  0
 15 22  1  0  0  0  0
 15 24  1  0  0  0  0
 16 17  1  0  0  0  0
 16 18  1  0  0  0  0
 16 19  1  0  0  0  0
 16 23  1  0  0  0  0
 17 37  1  0  0  0  0
 17 38  1  0  0  0  0
 17 39  1  0  0  0  0
 18 40  1  0  0  0  0
 18 41  1  0  0  0  0
 18 42  1  0  0  0  0
 19 43  1  0  0  0  0
 19 44  1  0  0  0  0
 19 45  1  0  0  0  0
 20 46  1  0  0  0  0
 20 47  1  0  0  0  0
 20 48  1  0  0  0  0
 21 49  1  0  0  0  0
 21 50  1  0  0  0  0
 21 51  1  0  0  0  0
 22 35  1  0  0  0  0
 22 36  1  0  0  0  0
 22 52  1  0  0  0  0
 25 26  1  0  0  0  0
 25 53  1  0  0  0  0
 25 54  1  0  0  0  0
 26 55  1  0  0  0  0
 26 56  1  0  0  0  0
 27 57  1  0  0  0  0
 27 58  1  0  0  0  0
 28 31  1  0  0  0  0
 29 61  1  0  0  0  0
 29 62  1  0  0  0  0
 30 59  1  0  0  0  0
 30 60  1  0  0  0  0
 31 33  2  0  0  0  0
 32 63  1  0  0  0  0
 34 64  1  0  0  0  0
M  END
> <PUBCHEM_COMPOUND_CID>
60871

> <PUBCHEM_COMPOUND_CANONICALIZED>
1

> <PUBCHEM_CACTVS_COMPLEXITY>
706

> <PUBCHEM_CACTVS_HBOND_ACCEPTOR>
12

> <PUBCHEM_CACTVS_HBOND_DONOR>
1

> <PUBCHEM_CACTVS_ROTATABLE_BOND>
15

> <PUBCHEM_CACTVS_SUBSKEYS>
AAADcfB7vAIAAAAAAAAAAAAAAAAAAWAAAAAsAAAAAAAAAFgB+AAAHggQACAADgjhlwcH+L9MFRCoQQbxbICAgC0REKABUCEoVBCSSABASEAVBAgIAALUACAAAAAAAAAAAAAAAAAAAAAAAAAAAAAAAAAAAA==

> <PUBCHEM_IUPAC_OPENEYE_NAME>
[2-(6-aminopurin-9-yl)ethoxymethyl-(2,2-dimethylpropanoyloxymethoxy)phosphoryl]oxymethyl 2,2-dimethylpropanoate

> <PUBCHEM_IUPAC_CAS_NAME>
2,2-dimethylpropanoic acid [2-(6-aminopurin-9-yl)ethoxymethyl-[(2,2-dimethyl-1-oxopropoxy)methoxy]phosphoryl]oxymethyl ester

> <PUBCHEM_IUPAC_NAME>
[2-(6-aminopurin-9-yl)ethoxymethyl-(2,2-dimethylpropanoyloxymethoxy)phosphoryl]oxymethyl 2,2-dimethylpropanoate

> <PUBCHEM_IUPAC_SYSTEMATIC_NAME>
[2-(6-aminopurin-9-yl)ethoxymethyl-(2,2-dimethylpropanoyloxymethoxy)phosphoryl]oxymethyl 2,2-dimethylpropanoate

> <PUBCHEM_IUPAC_TRADITIONAL_NAME>
2,2-dimethylpropionic acid [2-adenin-9-ylethoxymethyl(pivaloyloxymethoxy)phosphoryl]oxymethyl ester

> <PUBCHEM_IUPAC_INCHI>
InChI=1S/C20H32N5O8P/c1-19(2,3)17(26)30-11-32-34(28,33-12-31-18(27)20(4,5)6)13-29-8-7-25-10-24-14-15(21)22-9-23-16(14)25/h9-10H,7-8,11-13H2,1-6H3,(H2,21,22,23)

> <PUBCHEM_IUPAC_INCHIKEY>
WOZSCQDILHKSGG-UHFFFAOYSA-N

> <PUBCHEM_XLOGP3>
1.8

> <PUBCHEM_EXACT_MASS>
501.19885

> <PUBCHEM_MOLECULAR_FORMULA>
C20H32N5O8P

> <PUBCHEM_MOLECULAR_WEIGHT>
501.470542

> <PUBCHEM_OPENEYE_CAN_SMILES>
CC(C)(C)C(=O)OCOP(=O)(COCCN1C=NC2=C1N=CN=C2N)OCOC(=O)C(C)(C)C

> <PUBCHEM_OPENEYE_ISO_SMILES>
CC(C)(C)C(=O)OCOP(=O)(COCCN1C=NC2=C1N=CN=C2N)OCOC(=O)C(C)(C)C

> <PUBCHEM_CACTVS_TPSA>
167

> <PUBCHEM_MONOISOTOPIC_WEIGHT>
501.19885

> <PUBCHEM_TOTAL_CHARGE>
0

> <PUBCHEM_HEAVY_ATOM_COUNT>
34

> <PUBCHEM_ATOM_DEF_STEREO_COUNT>
0

> <PUBCHEM_ATOM_UDEF_STEREO_COUNT>
0

> <PUBCHEM_BOND_DEF_STEREO_COUNT>
0

> <PUBCHEM_BOND_UDEF_STEREO_COUNT>
0

> <PUBCHEM_ISOTOPIC_ATOM_COUNT>
0

> <PUBCHEM_COMPONENT_COUNT>
1

> <PUBCHEM_CACTVS_TAUTO_COUNT>
3

> <PUBCHEM_COORDINATE_TYPE>
1
5
255

> <PUBCHEM_BONDANNOTATIONS>
10  28  8
10  32  8
11  31  8
11  32  8
12  28  8
12  34  8
13  33  8
13  34  8
28  31  8
31  33  8

$$$$
