6398525
  -OEChem-12171208262D

143115  0     1  0  0  0  0  0999 V2000
    6.8031    3.6469    0.0000 S   0  0  0  0  0  0  0  0  0  0  0  0
    9.4139    2.5802    0.0000 S   0  0  0  0  0  0  0  0  0  0  0  0
    8.2711    9.8851    0.0000 S   0  0  0  0  0  0  0  0  0  0  0  0
   10.8692   10.3851    0.0000 S   0  0  0  0  0  0  0  0  0  0  0  0
   12.7352    8.8851    0.0000 S   0  0  0  0  0  0  0  0  0  0  0  0
   10.7391    3.6469    0.0000 S   0  0  0  0  0  0  0  0  0  0  0  0
    5.6258    5.8340    0.0000 S   0  0  0  0  0  0  0  0  0  0  0  0
   13.4673    6.8851    0.0000 S   0  0  0  0  0  0  0  0  0  0  0  0
    5.6442    2.3597    0.0000 Al  0  0  0  0  0 15  0  0  0  0  0  0
    8.8215    0.9526    0.0000 Al  0  0  0  0  0 15  0  0  0  0  0  0
    7.4051   11.3851    0.0000 Al  0  0  0  0  0 15  0  0  0  0  0  0
   11.7352   11.8851    0.0000 Al  0  0  0  0  0 15  0  0  0  0  0  0
   14.2352    9.7511    0.0000 Al  0  0  0  0  0 15  0  0  0  0  0  0
   12.3864    3.1116    0.0000 Al  0  0  0  0  0 15  0  0  0  0  0  0
    4.4669    7.1212    0.0000 Al  0  0  0  0  0 15  0  0  0  0  0  0
   14.9761    5.6191    0.0000 Al  0  0  0  0  0 15  0  0  0  0  0  0
    9.6993   15.8250    0.0000 Al  0  0  0  0  0 15  0  0  0  0  0  0
    8.2711    6.8851    0.0000 O   0  0  0  0  0  0  0  0  0  0  0  0
    9.2711    5.8851    0.0000 O   0  0  0  0  0  0  0  0  0  0  0  0
   10.0032    6.8851    0.0000 O   0  0  0  0  0  0  0  0  0  0  0  0
    7.0110    4.6250    0.0000 O   0  0  0  0  0  0  0  0  0  0  0  0
    8.7711    3.3462    0.0000 O   0  0  0  0  0  0  0  0  0  0  0  0
    8.2711    8.8851    0.0000 O   0  0  0  0  0  0  0  0  0  0  0  0
   10.0032    9.8851    0.0000 O   0  0  0  0  0  0  0  0  0  0  0  0
   11.7352    8.8851    0.0000 O   0  0  0  0  0  0  0  0  0  0  0  0
   10.5312    4.6250    0.0000 O   0  0  0  0  0  0  0  0  0  0  0  0
    6.5769    5.5250    0.0000 O   0  0  0  0  0  0  0  0  0  0  0  0
   12.6012    7.3851    0.0000 O   0  0  0  0  0  0  0  0  0  0  0  0
    6.5952    2.6687    0.0000 O   0  0  0  0  0  0  0  0  0  0  0  0
    8.6478    1.9374    0.0000 O   0  0  0  0  0  0  0  0  0  0  0  0
    8.2711   10.8851    0.0000 O   0  0  0  0  0  0  0  0  0  0  0  0
   11.7352   10.8851    0.0000 O   0  0  0  0  0  0  0  0  0  0  0  0
   13.7352    8.8851    0.0000 O   0  0  0  0  0  0  0  0  0  0  0  0
   11.7172    3.8548    0.0000 O   0  0  0  0  0  0  0  0  0  0  0  0
    5.8250    3.8548    0.0000 O   0  0  0  0  0  0  0  0  0  0  0  0
    7.7813    3.4390    0.0000 O   0  0  0  0  0  0  0  0  0  0  0  0
    4.6748    6.1430    0.0000 O   0  0  0  0  0  0  0  0  0  0  0  0
    9.5875    1.5954    0.0000 O   0  0  0  0  0  0  0  0  0  0  0  0
   10.3987    2.7538    0.0000 O   0  0  0  0  0  0  0  0  0  0  0  0
    7.2711    9.8851    0.0000 O   0  0  0  0  0  0  0  0  0  0  0  0
    9.2711    9.8851    0.0000 O   0  0  0  0  0  0  0  0  0  0  0  0
   10.3692   11.2511    0.0000 O   0  0  0  0  0  0  0  0  0  0  0  0
   11.3692    9.5191    0.0000 O   0  0  0  0  0  0  0  0  0  0  0  0
   12.7352    9.8851    0.0000 O   0  0  0  0  0  0  0  0  0  0  0  0
   12.2353    8.0190    0.0000 O   0  0  0  0  0  0  0  0  0  0  0  0
   11.4082    2.9037    0.0000 O   0  0  0  0  0  0  0  0  0  0  0  0
    9.7609    3.4390    0.0000 O   0  0  0  0  0  0  0  0  0  0  0  0
   14.3333    6.3851    0.0000 O   0  0  0  0  0  0  0  0  0  0  0  0
    5.9349    6.7850    0.0000 O   0  0  0  0  0  0  0  0  0  0  0  0
    5.3168    4.8829    0.0000 O   0  0  0  0  0  0  0  0  0  0  0  0
   13.9673    7.7511    0.0000 O   0  0  0  0  0  0  0  0  0  0  0  0
   12.9673    6.0191    0.0000 O   0  0  0  0  0  0  0  0  0  0  0  0
    5.9532    1.4086    0.0000 O   0  0  0  0  0  0  0  0  0  0  0  0
    4.6660    2.5676    0.0000 O   0  0  0  0  0  0  0  0  0  0  0  0
    7.8368    0.7789    0.0000 O   0  0  0  0  0  0  0  0  0  0  0  0
    9.7612    0.6106    0.0000 O   0  0  0  0  0  0  0  0  0  0  0  0
    7.9051   12.2511    0.0000 O   0  0  0  0  0  0  0  0  0  0  0  0
    6.4051   11.3850    0.0000 O   0  0  0  0  0  0  0  0  0  0  0  0
   12.7352   11.8851    0.0000 O   0  0  0  0  0  0  0  0  0  0  0  0
   11.2353   12.7512    0.0000 O   0  0  0  0  0  0  0  0  0  0  0  0
   15.1012    9.2511    0.0000 O   0  0  0  0  0  0  0  0  0  0  0  0
   14.2352   10.7511    0.0000 O   0  0  0  0  0  0  0  0  0  0  0  0
   12.0773    2.1606    0.0000 O   0  0  0  0  0  0  0  0  0  0  0  0
   13.1295    3.7808    0.0000 O   0  0  0  0  0  0  0  0  0  0  0  0
    3.4887    6.9132    0.0000 O   0  0  0  0  0  0  0  0  0  0  0  0
    4.7759    8.0722    0.0000 O   0  0  0  0  0  0  0  0  0  0  0  0
   15.7421    6.2618    0.0000 O   0  0  0  0  0  0  0  0  0  0  0  0
   14.2100    4.9762    0.0000 O   0  0  0  0  0  0  0  0  0  0  0  0
    9.6993   16.8250    0.0000 O   0  0  0  0  0  0  0  0  0  0  0  0
    8.6993   15.8250    0.0000 O   0  0  0  0  0  0  0  0  0  0  0  0
   10.6993   15.8250    0.0000 O   0  0  0  0  0  0  0  0  0  0  0  0
    0.5369    8.3175    0.0000 O   0  0  0  0  0  0  0  0  0  0  0  0
    8.2711    5.8851    0.0000 C   0  0  2  0  0  0  0  0  0  0  0  0
    7.9621    4.9340    0.0000 C   0  0  2  0  0  0  0  0  0  0  0  0
    8.7711    4.3462    0.0000 C   0  0  1  0  0  0  0  0  0  0  0  0
    9.1371    7.3851    0.0000 C   0  0  2  0  0  0  0  0  0  0  0  0
    9.1371    8.3851    0.0000 C   0  0  1  0  0  0  0  0  0  0  0  0
   10.0032    8.8851    0.0000 C   0  0  2  0  0  0  0  0  0  0  0  0
   10.8692    8.3851    0.0000 C   0  0  1  0  0  0  0  0  0  0  0  0
    9.5801    4.9340    0.0000 C   0  0  2  0  0  0  0  0  0  0  0  0
   10.8692    7.3851    0.0000 C   0  0  1  0  0  0  0  0  0  0  0  0
    7.3200    6.1941    0.0000 C   0  0  0  0  0  0  0  0  0  0  0  0
   11.7352    6.8851    0.0000 C   0  0  0  0  0  0  0  0  0  0  0  0
    7.5237    5.3724    0.0000 H   0  0  0  0  0  0  0  0  0  0  0  0
    9.3235    4.0648    0.0000 H   0  0  0  0  0  0  0  0  0  0  0  0
    8.6002    7.6951    0.0000 H   0  0  0  0  0  0  0  0  0  0  0  0
    8.6002    8.0751    0.0000 H   0  0  0  0  0  0  0  0  0  0  0  0
    9.4662    9.1951    0.0000 H   0  0  0  0  0  0  0  0  0  0  0  0
   11.4061    8.0751    0.0000 H   0  0  0  0  0  0  0  0  0  0  0  0
    9.6771    4.3217    0.0000 H   0  0  0  0  0  0  0  0  0  0  0  0
   10.8692    6.7651    0.0000 H   0  0  0  0  0  0  0  0  0  0  0  0
    7.6111    6.7415    0.0000 H   0  0  0  0  0  0  0  0  0  0  0  0
    6.8315    6.5758    0.0000 H   0  0  0  0  0  0  0  0  0  0  0  0
   11.3367    6.4101    0.0000 H   0  0  0  0  0  0  0  0  0  0  0  0
   12.1337    6.4101    0.0000 H   0  0  0  0  0  0  0  0  0  0  0  0
    7.0560    2.2538    0.0000 H   0  0  0  0  0  0  0  0  0  0  0  0
    8.0653    2.1494    0.0000 H   0  0  0  0  0  0  0  0  0  0  0  0
    8.8080   11.1951    0.0000 H   0  0  0  0  0  0  0  0  0  0  0  0
   12.2721   10.5751    0.0000 H   0  0  0  0  0  0  0  0  0  0  0  0
   14.0452    8.3482    0.0000 H   0  0  0  0  0  0  0  0  0  0  0  0
   11.9088    4.4444    0.0000 H   0  0  0  0  0  0  0  0  0  0  0  0
    4.2140    5.7281    0.0000 H   0  0  0  0  0  0  0  0  0  0  0  0
   14.8702    6.6951    0.0000 H   0  0  0  0  0  0  0  0  0  0  0  0
    5.5383    0.9479    0.0000 H   0  0  0  0  0  0  0  0  0  0  0  0
    6.5596    1.2797    0.0000 H   0  0  0  0  0  0  0  0  0  0  0  0
    4.2511    2.1069    0.0000 H   0  0  0  0  0  0  0  0  0  0  0  0
    4.4744    3.1573    0.0000 H   0  0  0  0  0  0  0  0  0  0  0  0
    7.6247    0.1963    0.0000 H   0  0  0  0  0  0  0  0  0  0  0  0
    7.4382    1.2539    0.0000 H   0  0  0  0  0  0  0  0  0  0  0  0
    9.8688    0.0000    0.0000 H   0  0  0  0  0  0  0  0  0  0  0  0
   10.2361    1.0091    0.0000 H   0  0  0  0  0  0  0  0  0  0  0  0
    7.5951   12.7880    0.0000 H   0  0  0  0  0  0  0  0  0  0  0  0
    8.5251   12.2511    0.0000 H   0  0  0  0  0  0  0  0  0  0  0  0
    6.0951   11.9220    0.0000 H   0  0  0  0  0  0  0  0  0  0  0  0
    6.0951   10.8481    0.0000 H   0  0  0  0  0  0  0  0  0  0  0  0
   13.0452   12.4220    0.0000 H   0  0  0  0  0  0  0  0  0  0  0  0
   13.0452   11.3481    0.0000 H   0  0  0  0  0  0  0  0  0  0  0  0
   11.5452   13.2880    0.0000 H   0  0  0  0  0  0  0  0  0  0  0  0
   10.6152   12.7512    0.0000 H   0  0  0  0  0  0  0  0  0  0  0  0
   15.6382    9.5611    0.0000 H   0  0  0  0  0  0  0  0  0  0  0  0
   15.1012    8.6311    0.0000 H   0  0  0  0  0  0  0  0  0  0  0  0
   14.7721   11.0611    0.0000 H   0  0  0  0  0  0  0  0  0  0  0  0
   13.6983   11.0611    0.0000 H   0  0  0  0  0  0  0  0  0  0  0  0
   12.4923    1.6998    0.0000 H   0  0  0  0  0  0  0  0  0  0  0  0
   11.4709    2.0317    0.0000 H   0  0  0  0  0  0  0  0  0  0  0  0
   13.7192    3.5892    0.0000 H   0  0  0  0  0  0  0  0  0  0  0  0
   13.0006    4.3872    0.0000 H   0  0  0  0  0  0  0  0  0  0  0  0
    3.0739    7.3740    0.0000 H   0  0  0  0  0  0  0  0  0  0  0  0
    3.2971    6.3236    0.0000 H   0  0  0  0  0  0  0  0  0  0  0  0
    4.3610    8.5330    0.0000 H   0  0  0  0  0  0  0  0  0  0  0  0
    5.3824    8.2011    0.0000 H   0  0  0  0  0  0  0  0  0  0  0  0
   16.3247    6.0498    0.0000 H   0  0  0  0  0  0  0  0  0  0  0  0
   15.6345    6.8724    0.0000 H   0  0  0  0  0  0  0  0  0  0  0  0
   13.6274    5.1883    0.0000 H   0  0  0  0  0  0  0  0  0  0  0  0
   14.3177    4.3657    0.0000 H   0  0  0  0  0  0  0  0  0  0  0  0
   10.2362   17.1350    0.0000 H   0  0  0  0  0  0  0  0  0  0  0  0
    9.1624   17.1350    0.0000 H   0  0  0  0  0  0  0  0  0  0  0  0
    8.3893   15.2880    0.0000 H   0  0  0  0  0  0  0  0  0  0  0  0
    8.3893   16.3619    0.0000 H   0  0  0  0  0  0  0  0  0  0  0  0
   11.0093   15.2880    0.0000 H   0  0  0  0  0  0  0  0  0  0  0  0
   11.0093   16.3619    0.0000 H   0  0  0  0  0  0  0  0  0  0  0  0
    1.0739    8.6275    0.0000 H   0  0  0  0  0  0  0  0  0  0  0  0
    0.0000    8.6275    0.0000 H   0  0  0  0  0  0  0  0  0  0  0  0
  1 21  1  0  0  0  0
  1 29  1  0  0  0  0
  1 35  2  0  0  0  0
  1 36  2  0  0  0  0
  2 22  1  0  0  0  0
  2 30  1  0  0  0  0
  2 38  2  0  0  0  0
  2 39  2  0  0  0  0
  3 23  1  0  0  0  0
  3 31  1  0  0  0  0
  3 40  2  0  0  0  0
  3 41  2  0  0  0  0
  4 24  1  0  0  0  0
  4 32  1  0  0  0  0
  4 42  2  0  0  0  0
  4 43  2  0  0  0  0
  5 25  1  0  0  0  0
  5 33  1  0  0  0  0
  5 44  2  0  0  0  0
  5 45  2  0  0  0  0
  6 26  1  0  0  0  0
  6 34  1  0  0  0  0
  6 46  2  0  0  0  0
  6 47  2  0  0  0  0
  7 27  1  0  0  0  0
  7 37  1  0  0  0  0
  7 49  2  0  0  0  0
  7 50  2  0  0  0  0
  8 28  1  0  0  0  0
  8 48  1  0  0  0  0
  8 51  2  0  0  0  0
  8 52  2  0  0  0  0
 73 18  1  6  0  0  0
 76 18  1  1  0  0  0
 19 73  1  0  0  0  0
 19 80  1  0  0  0  0
 20 76  1  0  0  0  0
 20 81  1  0  0  0  0
 74 21  1  6  0  0  0
 75 22  1  1  0  0  0
 77 23  1  6  0  0  0
 78 24  1  1  0  0  0
 79 25  1  6  0  0  0
 80 26  1  6  0  0  0
 27 82  1  0  0  0  0
 28 83  1  0  0  0  0
 29 96  1  0  0  0  0
 30 97  1  0  0  0  0
 31 98  1  0  0  0  0
 32 99  1  0  0  0  0
 33100  1  0  0  0  0
 34101  1  0  0  0  0
 37102  1  0  0  0  0
 48103  1  0  0  0  0
 53104  1  0  0  0  0
 53105  1  0  0  0  0
 54106  1  0  0  0  0
 54107  1  0  0  0  0
 55108  1  0  0  0  0
 55109  1  0  0  0  0
 56110  1  0  0  0  0
 56111  1  0  0  0  0
 57112  1  0  0  0  0
 57113  1  0  0  0  0
 58114  1  0  0  0  0
 58115  1  0  0  0  0
 59116  1  0  0  0  0
 59117  1  0  0  0  0
 60118  1  0  0  0  0
 60119  1  0  0  0  0
 61120  1  0  0  0  0
 61121  1  0  0  0  0
 62122  1  0  0  0  0
 62123  1  0  0  0  0
 63124  1  0  0  0  0
 63125  1  0  0  0  0
 64126  1  0  0  0  0
 64127  1  0  0  0  0
 65128  1  0  0  0  0
 65129  1  0  0  0  0
 66130  1  0  0  0  0
 66131  1  0  0  0  0
 67132  1  0  0  0  0
 67133  1  0  0  0  0
 68134  1  0  0  0  0
 68135  1  0  0  0  0
 69136  1  0  0  0  0
 69137  1  0  0  0  0
 70138  1  0  0  0  0
 70139  1  0  0  0  0
 71140  1  0  0  0  0
 71141  1  0  0  0  0
 72142  1  0  0  0  0
 72143  1  0  0  0  0
 73 74  1  0  0  0  0
 73 82  1  0  0  0  0
 74 75  1  0  0  0  0
 74 84  1  0  0  0  0
 75 80  1  0  0  0  0
 75 85  1  0  0  0  0
 76 77  1  0  0  0  0
 76 86  1  0  0  0  0
 77 78  1  0  0  0  0
 77 87  1  0  0  0  0
 78 79  1  0  0  0  0
 78 88  1  0  0  0  0
 79 81  1  0  0  0  0
 79 89  1  0  0  0  0
 80 90  1  0  0  0  0
 81 83  1  1  0  0  0
 81 91  1  0  0  0  0
 82 92  1  0  0  0  0
 82 93  1  0  0  0  0
 83 94  1  0  0  0  0
 83 95  1  0  0  0  0
M  END
> <PUBCHEM_COMPOUND_CID>
6398525

> <PUBCHEM_COMPOUND_CANONICALIZED>
1

> <PUBCHEM_CACTVS_COMPLEXITY>
2260

> <PUBCHEM_CACTVS_HBOND_ACCEPTOR>
55

> <PUBCHEM_CACTVS_HBOND_DONOR>
28

> <PUBCHEM_CACTVS_ROTATABLE_BOND>
20

> <PUBCHEM_CACTVS_SUBSKEYS>
AAADcfBwPgB4ABAAAAAAAAAAAAAAASAAAAAkAAAAAAAAAAAAAAAAGgAACAAACBSwgAMACAAABIAAAAAAADAAAAAAAAAAAAAAAAARAAIAAAAiAAAFAAAGAAHAYAwAAAAAAAAAAAAAAAAAAAAAAAAAAAAAAA==

> <PUBCHEM_IUPAC_OPENEYE_NAME>
aluminum;[(2R,3R,4S,5R,6S)-3,5-disulfooxy-2-(sulfooxymethyl)-6-[(2R,3S,4S,5R)-3,4,5-trisulfooxy-2-(sulfooxymethyl)tetrahydrofuran-2-yl]oxy-tetrahydropyran-4-yl] hydrogen sulfate;icosahydrate

> <PUBCHEM_IUPAC_CAS_NAME>
aluminum;sulfuric acid [(2R,3S,4S,5R)-2,4-disulfooxy-5-(sulfooxymethyl)-5-[[(2S,3R,4S,5R,6R)-3,4,5-trisulfooxy-6-(sulfooxymethyl)-2-oxanyl]oxy]-3-oxolanyl] ester;eicosahydrate

> <PUBCHEM_IUPAC_NAME>
aluminum;[(2R,3S,4S,5R)-2,4-disulfooxy-5-(sulfooxymethyl)-5-[(2S,3R,4S,5R,6R)-3,4,5-trisulfooxy-6-(sulfooxymethyl)oxan-2-yl]oxyoxolan-3-yl] hydrogen sulfate;icosahydrate

> <PUBCHEM_IUPAC_SYSTEMATIC_NAME>
aluminum;[(2R,3S,4S,5R)-2,4-disulfooxy-5-(sulfooxymethyl)-5-[(2S,3R,4S,5R,6R)-3,4,5-trisulfooxy-6-(sulfooxymethyl)oxan-2-yl]oxy-oxolan-3-yl] hydrogen sulfate;icosahydrate

> <PUBCHEM_IUPAC_TRADITIONAL_NAME>
aluminum;sulfuric acid [(2R,3R,4S,5R,6S)-3,5-disulfoxy-2-(sulfoxymethyl)-6-[(2R,3S,4S,5R)-3,4,5-trisulfoxy-2-(sulfoxymethyl)tetrahydrofuran-2-yl]oxy-tetrahydropyran-4-yl] ester;eicosahydrate

> <PUBCHEM_IUPAC_INCHI>
InChI=1S/C11H20O35S8.9Al.20H2O/c12-47(13,14)36-1-3-4(41-49(18,19)20)5(42-50(21,22)23)6(43-51(24,25)26)9(38-3)39-11(2-37-48(15,16)17)8(45-53(30,31)32)7(44-52(27,28)29)10(40-11)46-54(33,34)35;;;;;;;;;;;;;;;;;;;;;;;;;;;;;/h3-10H,1-2H2,(H,12,13,14)(H,15,16,17)(H,18,19,20)(H,21,22,23)(H,24,25,26)(H,27,28,29)(H,30,31,32)(H,33,34,35);;;;;;;;;;20*1H2/t3-,4-,5+,6-,7+,8+,9+,10-,11-;;;;;;;;;;;;;;;;;;;;;;;;;;;;;/m1............................./s1

> <PUBCHEM_IUPAC_INCHIKEY>
VGNZFVKOOSPYGY-UDJZYEQASA-N

> <PUBCHEM_EXACT_MASS>
1570.800222

> <PUBCHEM_MOLECULAR_FORMULA>
C11H60Al9O55S8

> <PUBCHEM_MOLECULAR_WEIGHT>
1571.914947

> <PUBCHEM_OPENEYE_CAN_SMILES>
C(C1C(C(C(C(O1)OC2(C(C(C(O2)OS(=O)(=O)O)OS(=O)(=O)O)OS(=O)(=O)O)COS(=O)(=O)O)OS(=O)(=O)O)OS(=O)(=O)O)OS(=O)(=O)O)OS(=O)(=O)O.O.O.O.O.O.O.O.O.O.O.O.O.O.O.O.O.O.O.O.O.[Al].[Al].[Al].[Al].[Al].[Al].[Al].[Al].[Al]

> <PUBCHEM_OPENEYE_ISO_SMILES>
C([C@@H]1[C@H]([C@@H]([C@H]([C@@H](O1)O[C@]2([C@H]([C@@H]([C@H](O2)OS(=O)(=O)O)OS(=O)(=O)O)OS(=O)(=O)O)COS(=O)(=O)O)OS(=O)(=O)O)OS(=O)(=O)O)OS(=O)(=O)O)OS(=O)(=O)O.O.O.O.O.O.O.O.O.O.O.O.O.O.O.O.O.O.O.O.O.[Al].[Al].[Al].[Al].[Al].[Al].[Al].[Al].[Al]

> <PUBCHEM_CACTVS_TPSA>
624

> <PUBCHEM_MONOISOTOPIC_WEIGHT>
1570.800222

> <PUBCHEM_TOTAL_CHARGE>
0

> <PUBCHEM_HEAVY_ATOM_COUNT>
83

> <PUBCHEM_ATOM_DEF_STEREO_COUNT>
9

> <PUBCHEM_ATOM_UDEF_STEREO_COUNT>
0

> <PUBCHEM_BOND_DEF_STEREO_COUNT>
0

> <PUBCHEM_BOND_UDEF_STEREO_COUNT>
0

> <PUBCHEM_ISOTOPIC_ATOM_COUNT>
0

> <PUBCHEM_COMPONENT_COUNT>
30

> <PUBCHEM_CACTVS_TAUTO_COUNT>
1

> <PUBCHEM_NONSTANDARDBOND>
10  30  6
10  55  6
10  56  6
11  31  6
11  57  6
11  58  6
12  32  6
12  59  6
12  60  6
13  33  6
13  61  6
13  62  6
14  34  6
14  63  6
14  64  6
15  37  6
15  65  6
15  66  6
16  48  6
16  67  6
16  68  6
17  69  6
17  70  6
17  71  6
9  29  6
9  53  6
9  54  6

> <PUBCHEM_COORDINATE_TYPE>
1
5
255

> <PUBCHEM_BONDANNOTATIONS>
73  18  6
76  18  5
74  21  6
75  22  5
77  23  6
78  24  5
79  25  6
80  26  6
81  83  5

$$$$
