6436173
  -OEChem-12171208262D

108113  0     1  0  0  0  0  0999 V2000
    3.8932   -0.6023    0.0000 O   0  0  0  0  0  0  0  0  0  0  0  0
    3.8513   -3.4929    0.0000 O   0  0  0  0  0  0  0  0  0  0  0  0
    6.9635   -2.0259    0.0000 O   0  0  0  0  0  0  0  0  0  0  0  0
    3.4857    3.0634    0.0000 O   0  0  0  0  0  0  0  0  0  0  0  0
    5.2237    2.9726    0.0000 O   0  0  0  0  0  0  0  0  0  0  0  0
    5.3072    1.3796    0.0000 O   0  0  0  0  0  0  0  0  0  0  0  0
    2.5527   -1.6990    0.0000 O   0  0  0  0  0  0  0  0  0  0  0  0
    7.2307    2.8470    0.0000 O   0  0  0  0  0  0  0  0  0  0  0  0
    6.7477   -1.5622    0.0000 O   0  0  0  0  0  0  0  0  0  0  0  0
    8.2982   -1.5622    0.0000 O   0  0  0  0  0  0  0  0  0  0  0  0
    8.9827   -1.9574    0.0000 O   0  0  0  0  0  0  0  0  0  0  0  0
    9.7388    1.3796    0.0000 N   0  0  0  0  0  0  0  0  0  0  0  0
    8.4843    2.1038    0.0000 N   0  0  0  0  0  0  0  0  0  0  0  0
    9.8488   -0.5622    0.0000 N   0  0  0  0  0  0  0  0  0  0  0  0
    2.9469   -1.3778    0.0000 C   0  0  2  0  0  0  0  0  0  0  0  0
    3.5966   -2.5259    0.0000 C   0  0  1  0  0  0  0  0  0  0  0  0
    3.2600    0.1717    0.0000 C   0  0  1  0  0  0  0  0  0  0  0  0
    4.8470   -3.2478    0.0000 C   0  0  1  0  0  0  0  0  0  0  0  0
    2.5381    1.4221    0.0000 C   0  0  1  0  0  0  0  0  0  0  0  0
    6.0975   -2.5259    0.0000 C   0  0  2  0  0  0  0  0  0  0  0  0
    2.3170   -0.6012    0.0000 C   0  0  0  0  0  0  0  0  0  0  0  0
    2.9857    2.1974    0.0000 C   0  0  2  0  0  0  0  0  0  0  0  0
    7.3479   -3.2478    0.0000 C   0  0  1  0  0  0  0  0  0  0  0  0
    5.7131   -3.7478    0.0000 C   0  0  0  0  0  0  0  0  0  0  0  0
    2.0381    2.2882    0.0000 C   0  0  0  0  0  0  0  0  0  0  0  0
    8.2139   -3.7478    0.0000 C   0  0  0  0  0  0  0  0  0  0  0  0
    3.8809    2.1974    0.0000 C   0  0  0  0  0  0  0  0  0  0  0  0
    8.5983   -2.5259    0.0000 C   0  0  0  0  0  0  0  0  0  0  0  0
    3.5396   -1.5376    0.0000 C   0  0  0  0  0  0  0  0  0  0  0  0
    5.6713    2.1974    0.0000 C   0  0  1  0  0  0  0  0  0  0  0  0
    4.3285    2.9726    0.0000 C   0  0  0  0  0  0  0  0  0  0  0  0
    6.7477    1.2282    0.0000 C   0  0  0  0  0  0  0  0  0  0  0  0
    7.5230    0.7806    0.0000 C   0  0  0  0  0  0  0  0  0  0  0  0
    9.8488   -3.2478    0.0000 C   0  0  0  0  0  0  0  0  0  0  0  0
    5.9724    0.7806    0.0000 C   0  0  0  0  0  0  0  0  0  0  0  0
    6.5616    2.1038    0.0000 C   0  0  0  0  0  0  0  0  0  0  0  0
    2.9857    3.9294    0.0000 C   0  0  0  0  0  0  0  0  0  0  0  0
    7.5230   -0.1146    0.0000 C   0  0  0  0  0  0  0  0  0  0  0  0
    8.2982    1.2282    0.0000 C   0  0  0  0  0  0  0  0  0  0  0  0
    4.1728   -2.3116    0.0000 C   0  0  0  0  0  0  0  0  0  0  0  0
    9.0735    0.7806    0.0000 C   0  0  0  0  0  0  0  0  0  0  0  0
    5.9724   -0.1146    0.0000 C   0  0  0  0  0  0  0  0  0  0  0  0
    6.2159    3.0360    0.0000 C   0  0  0  0  0  0  0  0  0  0  0  0
    6.7477   -0.5622    0.0000 C   0  0  0  0  0  0  0  0  0  0  0  0
    9.0735   -0.1146    0.0000 C   0  0  0  0  0  0  0  0  0  0  0  0
    8.2982   -0.5622    0.0000 C   0  0  0  0  0  0  0  0  0  0  0  0
   10.6240   -2.8002    0.0000 C   0  0  0  0  0  0  0  0  0  0  0  0
    9.3747    2.1974    0.0000 C   0  0  0  0  0  0  0  0  0  0  0  0
    5.1064   -0.6146    0.0000 C   0  0  0  0  0  0  0  0  0  0  0  0
   10.6240   -1.9050    0.0000 C   0  0  0  0  0  0  0  0  0  0  0  0
   10.6291    1.2860    0.0000 C   0  0  0  0  0  0  0  0  0  0  0  0
    9.8488   -1.4574    0.0000 C   0  0  0  0  0  0  0  0  0  0  0  0
    9.9008    2.9216    0.0000 C   0  0  0  0  0  0  0  0  0  0  0  0
   10.7911    2.8280    0.0000 C   0  0  0  0  0  0  0  0  0  0  0  0
   11.1552    2.0102    0.0000 C   0  0  0  0  0  0  0  0  0  0  0  0
   11.4901   -1.4050    0.0000 C   0  0  0  0  0  0  0  0  0  0  0  0
   11.3789    3.6370    0.0000 C   0  0  0  0  0  0  0  0  0  0  0  0
    2.7252   -1.9568    0.0000 H   0  0  0  0  0  0  0  0  0  0  0  0
    2.9984   -2.3628    0.0000 H   0  0  0  0  0  0  0  0  0  0  0  0
    3.4793    0.7516    0.0000 H   0  0  0  0  0  0  0  0  0  0  0  0
    4.3101   -3.5578    0.0000 H   0  0  0  0  0  0  0  0  0  0  0  0
    2.2281    0.8852    0.0000 H   0  0  0  0  0  0  0  0  0  0  0  0
    5.5605   -2.2159    0.0000 H   0  0  0  0  0  0  0  0  0  0  0  0
    1.8355   -0.9917    0.0000 H   0  0  0  0  0  0  0  0  0  0  0  0
    1.9265   -0.1196    0.0000 H   0  0  0  0  0  0  0  0  0  0  0  0
    2.7986   -0.2106    0.0000 H   0  0  0  0  0  0  0  0  0  0  0  0
    2.3657    2.1974    0.0000 H   0  0  0  0  0  0  0  0  0  0  0  0
    6.8110   -3.5578    0.0000 H   0  0  0  0  0  0  0  0  0  0  0  0
    6.0231   -3.2109    0.0000 H   0  0  0  0  0  0  0  0  0  0  0  0
    6.2500   -4.0578    0.0000 H   0  0  0  0  0  0  0  0  0  0  0  0
    5.4031   -4.2848    0.0000 H   0  0  0  0  0  0  0  0  0  0  0  0
    1.5012    1.9782    0.0000 H   0  0  0  0  0  0  0  0  0  0  0  0
    1.7281    2.8251    0.0000 H   0  0  0  0  0  0  0  0  0  0  0  0
    2.5750    2.5982    0.0000 H   0  0  0  0  0  0  0  0  0  0  0  0
    3.4110   -3.9294    0.0000 H   0  0  0  0  0  0  0  0  0  0  0  0
    8.5239   -3.2109    0.0000 H   0  0  0  0  0  0  0  0  0  0  0  0
    8.7509   -4.0578    0.0000 H   0  0  0  0  0  0  0  0  0  0  0  0
    7.9039   -4.2848    0.0000 H   0  0  0  0  0  0  0  0  0  0  0  0
    4.1909    1.6604    0.0000 H   0  0  0  0  0  0  0  0  0  0  0  0
    7.5004   -2.3359    0.0000 H   0  0  0  0  0  0  0  0  0  0  0  0
    8.5983   -1.9059    0.0000 H   0  0  0  0  0  0  0  0  0  0  0  0
    4.0185    3.5096    0.0000 H   0  0  0  0  0  0  0  0  0  0  0  0
    9.8488   -3.8678    0.0000 H   0  0  0  0  0  0  0  0  0  0  0  0
    2.4488    3.6194    0.0000 H   0  0  0  0  0  0  0  0  0  0  0  0
    2.6757    4.4664    0.0000 H   0  0  0  0  0  0  0  0  0  0  0  0
    3.5226    4.2394    0.0000 H   0  0  0  0  0  0  0  0  0  0  0  0
    4.6527   -1.9190    0.0000 H   0  0  0  0  0  0  0  0  0  0  0  0
    4.5654   -2.7915    0.0000 H   0  0  0  0  0  0  0  0  0  0  0  0
    3.6930   -2.7042    0.0000 H   0  0  0  0  0  0  0  0  0  0  0  0
    5.6960    3.3737    0.0000 H   0  0  0  0  0  0  0  0  0  0  0  0
    6.5536    3.5560    0.0000 H   0  0  0  0  0  0  0  0  0  0  0  0
    6.7359    2.6984    0.0000 H   0  0  0  0  0  0  0  0  0  0  0  0
   11.1610   -3.1102    0.0000 H   0  0  0  0  0  0  0  0  0  0  0  0
    5.4164   -1.1516    0.0000 H   0  0  0  0  0  0  0  0  0  0  0  0
    4.5695   -0.9246    0.0000 H   0  0  0  0  0  0  0  0  0  0  0  0
    4.7964   -0.0777    0.0000 H   0  0  0  0  0  0  0  0  0  0  0  0
   10.3857   -0.2522    0.0000 H   0  0  0  0  0  0  0  0  0  0  0  0
   10.8812    0.7196    0.0000 H   0  0  0  0  0  0  0  0  0  0  0  0
    9.6487    3.4880    0.0000 H   0  0  0  0  0  0  0  0  0  0  0  0
    6.2108   -1.8722    0.0000 H   0  0  0  0  0  0  0  0  0  0  0  0
   11.7718    1.9454    0.0000 H   0  0  0  0  0  0  0  0  0  0  0  0
    7.6782   -1.5622    0.0000 H   0  0  0  0  0  0  0  0  0  0  0  0
   11.1801   -0.8681    0.0000 H   0  0  0  0  0  0  0  0  0  0  0  0
   12.0270   -1.0950    0.0000 H   0  0  0  0  0  0  0  0  0  0  0  0
   11.8001   -1.9420    0.0000 H   0  0  0  0  0  0  0  0  0  0  0  0
   10.8773    4.0015    0.0000 H   0  0  0  0  0  0  0  0  0  0  0  0
   11.7433    4.1386    0.0000 H   0  0  0  0  0  0  0  0  0  0  0  0
   11.8805    3.2726    0.0000 H   0  0  0  0  0  0  0  0  0  0  0  0
 17  1  1  1  0  0  0
  1 29  1  0  0  0  0
 16  2  1  1  0  0  0
  2 75  1  0  0  0  0
 20  3  1  1  0  0  0
  3 80  1  0  0  0  0
 22  4  1  1  0  0  0
  4 37  1  0  0  0  0
  5 30  1  0  0  0  0
  5 31  1  0  0  0  0
  6 30  1  0  0  0  0
  6 35  1  0  0  0  0
  7 29  2  0  0  0  0
  8 36  2  0  0  0  0
  9 44  1  0  0  0  0
  9100  1  0  0  0  0
 10 46  1  0  0  0  0
 10102  1  0  0  0  0
 11 52  2  0  0  0  0
 12 41  1  0  0  0  0
 12 48  1  0  0  0  0
 12 51  1  0  0  0  0
 13 39  1  0  0  0  0
 13 48  2  0  0  0  0
 14 45  1  0  0  0  0
 14 52  1  0  0  0  0
 14 97  1  0  0  0  0
 15 16  1  0  0  0  0
 15 17  1  0  0  0  0
 15 21  1  1  0  0  0
 15 58  1  0  0  0  0
 16 18  1  0  0  0  0
 16 59  1  0  0  0  0
 17 19  1  0  0  0  0
 17 60  1  0  0  0  0
 18 20  1  0  0  0  0
 18 24  1  1  0  0  0
 18 61  1  0  0  0  0
 19 22  1  0  0  0  0
 19 25  1  6  0  0  0
 19 62  1  0  0  0  0
 20 23  1  0  0  0  0
 20 63  1  0  0  0  0
 21 64  1  0  0  0  0
 21 65  1  0  0  0  0
 21 66  1  0  0  0  0
 22 27  1  0  0  0  0
 22 67  1  0  0  0  0
 23 26  1  6  0  0  0
 23 28  1  0  0  0  0
 23 68  1  0  0  0  0
 24 69  1  0  0  0  0
 24 70  1  0  0  0  0
 24 71  1  0  0  0  0
 25 72  1  0  0  0  0
 25 73  1  0  0  0  0
 25 74  1  0  0  0  0
 26 76  1  0  0  0  0
 26 77  1  0  0  0  0
 26 78  1  0  0  0  0
 27 31  2  0  0  0  0
 27 79  1  0  0  0  0
 28 34  2  0  0  0  0
 28 81  1  0  0  0  0
 29 40  1  0  0  0  0
 30 36  1  0  0  0  0
 30 43  1  1  0  0  0
 31 82  1  0  0  0  0
 32 33  1  0  0  0  0
 32 35  2  0  0  0  0
 32 36  1  0  0  0  0
 33 38  2  0  0  0  0
 33 39  1  0  0  0  0
 34 47  1  0  0  0  0
 34 83  1  0  0  0  0
 35 42  1  0  0  0  0
 37 84  1  0  0  0  0
 37 85  1  0  0  0  0
 37 86  1  0  0  0  0
 38 44  1  0  0  0  0
 38 46  1  0  0  0  0
 39 41  2  0  0  0  0
 40 87  1  0  0  0  0
 40 88  1  0  0  0  0
 40 89  1  0  0  0  0
 41 45  1  0  0  0  0
 42 44  2  0  0  0  0
 42 49  1  0  0  0  0
 43 90  1  0  0  0  0
 43 91  1  0  0  0  0
 43 92  1  0  0  0  0
 45 46  2  0  0  0  0
 47 50  2  0  0  0  0
 47 93  1  0  0  0  0
 48 53  1  0  0  0  0
 49 94  1  0  0  0  0
 49 95  1  0  0  0  0
 49 96  1  0  0  0  0
 50 52  1  0  0  0  0
 50 56  1  0  0  0  0
 51 55  2  0  0  0  0
 51 98  1  0  0  0  0
 53 54  2  0  0  0  0
 53 99  1  0  0  0  0
 54 55  1  0  0  0  0
 54 57  1  0  0  0  0
 55101  1  0  0  0  0
 56103  1  0  0  0  0
 56104  1  0  0  0  0
 56105  1  0  0  0  0
 57106  1  0  0  0  0
 57107  1  0  0  0  0
 57108  1  0  0  0  0
M  END
> <PUBCHEM_COMPOUND_CID>
6436173

> <PUBCHEM_COMPOUND_CANONICALIZED>
1

> <PUBCHEM_CACTVS_COMPLEXITY>
1590

> <PUBCHEM_CACTVS_HBOND_ACCEPTOR>
12

> <PUBCHEM_CACTVS_HBOND_DONOR>
5

> <PUBCHEM_CACTVS_ROTATABLE_BOND>
3

> <PUBCHEM_CACTVS_SUBSKEYS>
AAADcfB/PAAAAAAAAAAAAAAAAAAAAWJAAAA8YIAAAAAAAFgB/AAAHgAQCAAADRzhnwY//v/MHgCoA7f3fAKCiC01MqAJ2CF9fNief3bW/d+2fWjv5B/c+af8/f/e6EADSgQaECDQgAaUCDQgQAAAAAAAAA==

> <PUBCHEM_IUPAC_INCHI>
InChI=1S/C43H51N3O11/c1-19-14-16-46-28(18-19)44-32-29-30-37(50)25(7)40-31(29)41(52)43(9,57-40)55-17-15-27(54-10)22(4)39(56-26(8)47)24(6)36(49)23(5)35(48)20(2)12-11-13-21(3)42(53)45-33(34(32)46)38(30)51/h11-18,20,22-24,27,35-36,39,48-51H,1-10H3,(H,45,53)/b12-11+,17-15+,21-13-/t20-,22+,23+,24+,27-,35-,36+,39+,43-/m0/s1

> <PUBCHEM_IUPAC_INCHIKEY>
NZCRJKRKKOLAOJ-XRCRFVBUSA-N

> <PUBCHEM_XLOGP3_AA>
6.9

> <PUBCHEM_EXACT_MASS>
785.352359

> <PUBCHEM_MOLECULAR_FORMULA>
C43H51N3O11

> <PUBCHEM_MOLECULAR_WEIGHT>
785.87854

> <PUBCHEM_OPENEYE_CAN_SMILES>
CC1C=CC=C(C(=O)NC2=C(C3=C(C4=C(C(=C3O)C)OC(C4=O)(OC=CC(C(C(C(C(C(C1O)C)O)C)OC(=O)C)C)OC)C)C5=C2N6C=CC(=CC6=N5)C)O)C

> <PUBCHEM_OPENEYE_ISO_SMILES>
C[C@H]1/C=C/C=C(\C(=O)NC2=C(C3=C(C4=C(C(=C3O)C)O[C@@](C4=O)(O/C=C/[C@@H]([C@H]([C@H]([C@@H]([C@@H]([C@@H]([C@H]1O)C)O)C)OC(=O)C)C)OC)C)C5=C2N6C=CC(=CC6=N5)C)O)/C

> <PUBCHEM_CACTVS_TPSA>
198

> <PUBCHEM_MONOISOTOPIC_WEIGHT>
785.352359

> <PUBCHEM_TOTAL_CHARGE>
0

> <PUBCHEM_HEAVY_ATOM_COUNT>
57

> <PUBCHEM_ATOM_DEF_STEREO_COUNT>
9

> <PUBCHEM_ATOM_UDEF_STEREO_COUNT>
0

> <PUBCHEM_BOND_DEF_STEREO_COUNT>
3

> <PUBCHEM_BOND_UDEF_STEREO_COUNT>
0

> <PUBCHEM_ISOTOPIC_ATOM_COUNT>
0

> <PUBCHEM_COMPONENT_COUNT>
1

> <PUBCHEM_CACTVS_TAUTO_COUNT>
265

> <PUBCHEM_COORDINATE_TYPE>
1
5
255

> <PUBCHEM_BONDANNOTATIONS>
17  1  5
12  41  8
12  48  8
12  51  8
13  39  8
13  48  8
15  21  5
18  24  5
19  25  6
16  2  5
23  26  6
20  3  5
30  43  5
32  33  8
32  35  8
33  38  8
33  39  8
35  42  8
38  44  8
38  46  8
39  41  8
22  4  5
41  45  8
42  44  8
45  46  8
48  53  8
51  55  8
53  54  8
54  55  8

$$$$
