6447131
  -OEChem-12171208262D

124127  0     1  0  0  0  0  0999 V2000
    2.4483    5.3201    0.0000 Cl  0  0  0  0  0  0  0  0  0  0  0  0
    8.1724   -1.7684    0.0000 O   0  0  0  0  0  0  0  0  0  0  0  0
   10.0441   -2.1046    0.0000 O   0  0  0  0  0  0  0  0  0  0  0  0
   10.0232   -3.4420    0.0000 O   0  0  0  0  0  0  0  0  0  0  0  0
    6.3064   -1.2741    0.0000 O   0  0  0  0  0  0  0  0  0  0  0  0
    5.7083    0.2316    0.0000 O   0  0  0  0  0  0  0  0  0  0  0  0
    6.4404    0.2316    0.0000 O   0  0  0  0  0  0  0  0  0  0  0  0
    4.3801    4.8024    0.0000 O   0  0  0  0  0  0  0  0  0  0  0  0
    9.1724    0.2316    0.0000 O   0  0  0  0  0  0  0  0  0  0  0  0
    2.9763   -1.7684    0.0000 O   0  0  0  0  0  0  0  0  0  0  0  0
    6.1815    2.1976    0.0000 O   0  0  0  0  0  0  0  0  0  0  0  0
    3.8423   -3.2684    0.0000 O   0  0  0  0  0  0  0  0  0  0  0  0
    8.1724    1.2316    0.0000 N   0  0  0  0  0  0  0  0  0  0  0  0
    8.1724   -2.7684    0.0000 C   0  0  1  0  0  0  0  0  0  0  0  0
    8.1802   -0.7503    0.0000 C   0  0  2  0  0  0  0  0  0  0  0  0
    9.0580   -2.2707    0.0000 C   0  0  2  0  0  0  0  0  0  0  0  0
    9.0619   -1.2548    0.0000 C   0  0  0  0  0  0  0  0  0  0  0  0
    7.3064   -1.2684    0.0000 C   0  0  2  0  0  0  0  0  0  0  0  0
    9.0384   -3.2684    0.0000 C   0  0  2  0  0  0  0  0  0  0  0  0
    9.0384   -4.2684    0.0000 C   0  0  0  0  0  0  0  0  0  0  0  0
    8.1724   -4.7684    0.0000 C   0  0  2  0  0  0  0  0  0  0  0  0
    9.1172   -0.4011    0.0000 C   0  0  0  0  0  0  0  0  0  0  0  0
    7.3064   -0.2684    0.0000 C   0  0  0  0  0  0  0  0  0  0  0  0
    3.2247    2.4223    0.0000 C   0  0  1  0  0  0  0  0  0  0  0  0
    7.3064    1.7316    0.0000 C   0  0  1  0  0  0  0  0  0  0  0  0
    3.9318    3.1294    0.0000 C   0  0  0  0  0  0  0  0  0  0  0  0
    2.2588    2.6811    0.0000 C   0  0  0  0  0  0  0  0  0  0  0  0
    3.6730    4.0953    0.0000 C   0  0  2  0  0  0  0  0  0  0  0  0
    7.3064   -4.2684    0.0000 C   0  0  0  0  0  0  0  0  0  0  0  0
    8.1724    0.2316    0.0000 C   0  0  0  0  0  0  0  0  0  0  0  0
    2.0000    3.6470    0.0000 C   0  0  0  0  0  0  0  0  0  0  0  0
    2.7071    4.3542    0.0000 C   0  0  2  0  0  0  0  0  0  0  0  0
    7.3064    2.7316    0.0000 C   0  0  0  0  0  0  0  0  0  0  0  0
    9.0384    1.7316    0.0000 C   0  0  0  0  0  0  0  0  0  0  0  0
    4.7083    0.2316    0.0000 C   0  0  1  0  0  0  0  0  0  0  0  0
    3.8423   -0.2684    0.0000 C   0  0  1  0  0  0  0  0  0  0  0  0
    8.1724    3.2316    0.0000 C   0  0  0  0  0  0  0  0  0  0  0  0
    9.0384    2.7316    0.0000 C   0  0  0  0  0  0  0  0  0  0  0  0
    8.1724   -5.7684    0.0000 C   0  0  0  0  0  0  0  0  0  0  0  0
    3.4836    1.4564    0.0000 C   0  0  0  0  0  0  0  0  0  0  0  0
    4.4495    1.1976    0.0000 C   0  0  0  0  0  0  0  0  0  0  0  0
    3.8423   -1.2684    0.0000 C   0  0  2  0  0  0  0  0  0  0  0  0
    6.4404    1.2316    0.0000 C   0  0  0  0  0  0  0  0  0  0  0  0
    7.3064   -3.2684    0.0000 C   0  0  0  0  0  0  0  0  0  0  0  0
   10.3933   -1.1676    0.0000 C   0  0  0  0  0  0  0  0  0  0  0  0
   10.3653   -4.3817    0.0000 C   0  0  0  0  0  0  0  0  0  0  0  0
    4.7083   -1.7684    0.0000 C   0  0  0  0  0  0  0  0  0  0  0  0
    5.5743   -3.2684    0.0000 C   0  0  2  0  0  0  0  0  0  0  0  0
    2.9763    0.2316    0.0000 C   0  0  0  0  0  0  0  0  0  0  0  0
    6.4404   -2.7684    0.0000 C   0  0  0  0  0  0  0  0  0  0  0  0
    5.1566    1.9047    0.0000 C   0  0  0  0  0  0  0  0  0  0  0  0
    4.7083   -2.7684    0.0000 C   0  0  0  0  0  0  0  0  0  0  0  0
    7.5116   -2.7045    0.0000 C   0  0  0  0  0  0  0  0  0  0  0  0
    5.5743   -4.2684    0.0000 C   0  0  0  0  0  0  0  0  0  0  0  0
    4.1213    5.7684    0.0000 C   0  0  0  0  0  0  0  0  0  0  0  0
    4.7083   -4.7684    0.0000 C   0  0  0  0  0  0  0  0  0  0  0  0
    8.1724   -3.6184    0.0000 H   0  0  0  0  0  0  0  0  0  0  0  0
    7.9128   -0.1910    0.0000 H   0  0  0  0  0  0  0  0  0  0  0  0
    9.2644   -2.8553    0.0000 H   0  0  0  0  0  0  0  0  0  0  0  0
    9.6723   -1.3633    0.0000 H   0  0  0  0  0  0  0  0  0  0  0  0
    9.2732   -0.6720    0.0000 H   0  0  0  0  0  0  0  0  0  0  0  0
    9.2505   -2.6858    0.0000 H   0  0  0  0  0  0  0  0  0  0  0  0
    9.2505   -4.8510    0.0000 H   0  0  0  0  0  0  0  0  0  0  0  0
    9.6490   -4.1607    0.0000 H   0  0  0  0  0  0  0  0  0  0  0  0
    7.6355   -5.0784    0.0000 H   0  0  0  0  0  0  0  0  0  0  0  0
    9.3338   -0.9820    0.0000 H   0  0  0  0  0  0  0  0  0  0  0  0
    9.6982   -0.1845    0.0000 H   0  0  0  0  0  0  0  0  0  0  0  0
    8.9007    0.1799    0.0000 H   0  0  0  0  0  0  0  0  0  0  0  0
    2.7863    1.9839    0.0000 H   0  0  0  0  0  0  0  0  0  0  0  0
    6.5703    2.1566    0.0000 H   0  0  0  0  0  0  0  0  0  0  0  0
    4.2875    2.6215    0.0000 H   0  0  0  0  0  0  0  0  0  0  0  0
    4.4938    3.3914    0.0000 H   0  0  0  0  0  0  0  0  0  0  0  0
    1.6412    2.6271    0.0000 H   0  0  0  0  0  0  0  0  0  0  0  0
    2.2048    2.0635    0.0000 H   0  0  0  0  0  0  0  0  0  0  0  0
    3.5126    4.6942    0.0000 H   0  0  0  0  0  0  0  0  0  0  0  0
    6.6958   -4.1607    0.0000 H   0  0  0  0  0  0  0  0  0  0  0  0
    7.0943   -4.8510    0.0000 H   0  0  0  0  0  0  0  0  0  0  0  0
    1.6444    4.1549    0.0000 H   0  0  0  0  0  0  0  0  0  0  0  0
    1.4381    3.3850    0.0000 H   0  0  0  0  0  0  0  0  0  0  0  0
    3.1455    4.7926    0.0000 H   0  0  0  0  0  0  0  0  0  0  0  0
    5.9933   -0.7390    0.0000 H   0  0  0  0  0  0  0  0  0  0  0  0
    7.0943    3.3142    0.0000 H   0  0  0  0  0  0  0  0  0  0  0  0
    6.6958    2.6240    0.0000 H   0  0  0  0  0  0  0  0  0  0  0  0
    9.2505    1.1490    0.0000 H   0  0  0  0  0  0  0  0  0  0  0  0
    9.6490    1.8393    0.0000 H   0  0  0  0  0  0  0  0  0  0  0  0
    5.0857    0.7235    0.0000 H   0  0  0  0  0  0  0  0  0  0  0  0
    3.3054   -0.5784    0.0000 H   0  0  0  0  0  0  0  0  0  0  0  0
    8.5709    3.7066    0.0000 H   0  0  0  0  0  0  0  0  0  0  0  0
    7.7739    3.7066    0.0000 H   0  0  0  0  0  0  0  0  0  0  0  0
    9.6490    2.6240    0.0000 H   0  0  0  0  0  0  0  0  0  0  0  0
    9.2505    3.3142    0.0000 H   0  0  0  0  0  0  0  0  0  0  0  0
    7.5524   -5.7684    0.0000 H   0  0  0  0  0  0  0  0  0  0  0  0
    8.1724   -6.3884    0.0000 H   0  0  0  0  0  0  0  0  0  0  0  0
    8.7924   -5.7684    0.0000 H   0  0  0  0  0  0  0  0  0  0  0  0
    3.0452    1.0180    0.0000 H   0  0  0  0  0  0  0  0  0  0  0  0
    3.3054   -0.9584    0.0000 H   0  0  0  0  0  0  0  0  0  0  0  0
   10.9743   -1.3841    0.0000 H   0  0  0  0  0  0  0  0  0  0  0  0
   10.6099   -0.5866    0.0000 H   0  0  0  0  0  0  0  0  0  0  0  0
    9.8124   -0.9510    0.0000 H   0  0  0  0  0  0  0  0  0  0  0  0
    9.7826   -4.5938    0.0000 H   0  0  0  0  0  0  0  0  0  0  0  0
   10.5773   -4.9643    0.0000 H   0  0  0  0  0  0  0  0  0  0  0  0
   10.9479   -4.1697    0.0000 H   0  0  0  0  0  0  0  0  0  0  0  0
    5.3189   -1.8760    0.0000 H   0  0  0  0  0  0  0  0  0  0  0  0
    4.9204   -1.1858    0.0000 H   0  0  0  0  0  0  0  0  0  0  0  0
    6.1113   -3.5784    0.0000 H   0  0  0  0  0  0  0  0  0  0  0  0
    3.2863    0.7686    0.0000 H   0  0  0  0  0  0  0  0  0  0  0  0
    2.4393    0.5416    0.0000 H   0  0  0  0  0  0  0  0  0  0  0  0
    2.6663   -0.3053    0.0000 H   0  0  0  0  0  0  0  0  0  0  0  0
    6.4404   -2.1484    0.0000 H   0  0  0  0  0  0  0  0  0  0  0  0
    5.5950    1.4663    0.0000 H   0  0  0  0  0  0  0  0  0  0  0  0
    5.5950    2.3431    0.0000 H   0  0  0  0  0  0  0  0  0  0  0  0
    4.7182    2.3431    0.0000 H   0  0  0  0  0  0  0  0  0  0  0  0
    8.0942   -2.9166    0.0000 H   0  0  0  0  0  0  0  0  0  0  0  0
    7.7236   -2.1219    0.0000 H   0  0  0  0  0  0  0  0  0  0  0  0
    6.9290   -2.4925    0.0000 H   0  0  0  0  0  0  0  0  0  0  0  0
    5.7864   -4.8510    0.0000 H   0  0  0  0  0  0  0  0  0  0  0  0
    6.1849   -4.1607    0.0000 H   0  0  0  0  0  0  0  0  0  0  0  0
    2.4393   -1.4584    0.0000 H   0  0  0  0  0  0  0  0  0  0  0  0
    4.7202    5.9288    0.0000 H   0  0  0  0  0  0  0  0  0  0  0  0
    3.9608    6.3672    0.0000 H   0  0  0  0  0  0  0  0  0  0  0  0
    3.5224    5.6079    0.0000 H   0  0  0  0  0  0  0  0  0  0  0  0
    4.3983   -4.2314    0.0000 H   0  0  0  0  0  0  0  0  0  0  0  0
    4.1714   -5.0784    0.0000 H   0  0  0  0  0  0  0  0  0  0  0  0
    5.0183   -5.3053    0.0000 H   0  0  0  0  0  0  0  0  0  0  0  0
 32  1  1  6  0  0  0
  2 14  1  0  0  0  0
  2 18  1  0  0  0  0
 16  3  1  6  0  0  0
  3 45  1  0  0  0  0
 19  4  1  1  0  0  0
  4 46  1  0  0  0  0
 18  5  1  6  0  0  0
  5 81  1  0  0  0  0
  6 35  1  0  0  0  0
  6 43  1  0  0  0  0
  7 23  2  0  0  0  0
 28  8  1  6  0  0  0
  8 55  1  0  0  0  0
  9 30  2  0  0  0  0
 42 10  1  6  0  0  0
 10118  1  0  0  0  0
 11 43  2  0  0  0  0
 12 52  2  0  0  0  0
 13 25  1  0  0  0  0
 13 30  1  0  0  0  0
 13 34  1  0  0  0  0
 14 16  1  0  0  0  0
 14 19  1  0  0  0  0
 14 57  1  6  0  0  0
 15 17  1  0  0  0  0
 15 18  1  0  0  0  0
 15 22  1  6  0  0  0
 15 58  1  0  0  0  0
 16 17  1  0  0  0  0
 16 59  1  0  0  0  0
 17 60  1  0  0  0  0
 17 61  1  0  0  0  0
 18 23  1  0  0  0  0
 19 20  1  0  0  0  0
 19 62  1  0  0  0  0
 20 21  1  0  0  0  0
 20 63  1  0  0  0  0
 20 64  1  0  0  0  0
 21 29  1  0  0  0  0
 21 39  1  1  0  0  0
 21 65  1  0  0  0  0
 22 66  1  0  0  0  0
 22 67  1  0  0  0  0
 22 68  1  0  0  0  0
 23 30  1  0  0  0  0
 24 26  1  0  0  0  0
 24 27  1  0  0  0  0
 24 40  1  6  0  0  0
 24 69  1  0  0  0  0
 25 33  1  0  0  0  0
 25 43  1  0  0  0  0
 25 70  1  1  0  0  0
 26 28  1  0  0  0  0
 26 71  1  0  0  0  0
 26 72  1  0  0  0  0
 27 31  1  0  0  0  0
 27 73  1  0  0  0  0
 27 74  1  0  0  0  0
 28 32  1  0  0  0  0
 28 75  1  0  0  0  0
 29 44  1  0  0  0  0
 29 76  1  0  0  0  0
 29 77  1  0  0  0  0
 31 32  1  0  0  0  0
 31 78  1  0  0  0  0
 31 79  1  0  0  0  0
 32 80  1  0  0  0  0
 33 37  1  0  0  0  0
 33 82  1  0  0  0  0
 33 83  1  0  0  0  0
 34 38  1  0  0  0  0
 34 84  1  0  0  0  0
 34 85  1  0  0  0  0
 35 36  1  0  0  0  0
 35 41  1  1  0  0  0
 35 86  1  0  0  0  0
 36 42  1  0  0  0  0
 36 49  1  1  0  0  0
 36 87  1  0  0  0  0
 37 38  1  0  0  0  0
 37 88  1  0  0  0  0
 37 89  1  0  0  0  0
 38 90  1  0  0  0  0
 38 91  1  0  0  0  0
 39 92  1  0  0  0  0
 39 93  1  0  0  0  0
 39 94  1  0  0  0  0
 40 41  2  0  0  0  0
 40 95  1  0  0  0  0
 41 51  1  0  0  0  0
 42 47  1  0  0  0  0
 42 96  1  0  0  0  0
 44 50  2  0  0  0  0
 44 53  1  0  0  0  0
 45 97  1  0  0  0  0
 45 98  1  0  0  0  0
 45 99  1  0  0  0  0
 46100  1  0  0  0  0
 46101  1  0  0  0  0
 46102  1  0  0  0  0
 47 52  1  0  0  0  0
 47103  1  0  0  0  0
 47104  1  0  0  0  0
 48 50  1  0  0  0  0
 48 52  1  0  0  0  0
 48 54  1  1  0  0  0
 48105  1  0  0  0  0
 49106  1  0  0  0  0
 49107  1  0  0  0  0
 49108  1  0  0  0  0
 50109  1  0  0  0  0
 51110  1  0  0  0  0
 51111  1  0  0  0  0
 51112  1  0  0  0  0
 53113  1  0  0  0  0
 53114  1  0  0  0  0
 53115  1  0  0  0  0
 54 56  1  0  0  0  0
 54116  1  0  0  0  0
 54117  1  0  0  0  0
 55119  1  0  0  0  0
 55120  1  0  0  0  0
 55121  1  0  0  0  0
 56122  1  0  0  0  0
 56123  1  0  0  0  0
 56124  1  0  0  0  0
M  END
> <PUBCHEM_COMPOUND_CID>
6447131

> <PUBCHEM_COMPOUND_CANONICALIZED>
1

> <PUBCHEM_CACTVS_COMPLEXITY>
1440

> <PUBCHEM_CACTVS_HBOND_ACCEPTOR>
11

> <PUBCHEM_CACTVS_HBOND_DONOR>
2

> <PUBCHEM_CACTVS_ROTATABLE_BOND>
6

> <PUBCHEM_CACTVS_SUBSKEYS>
AAADcfB+PAAEAAAAAAAAAAAAAAAAAAAAAAA8SIAAAAAAAAAAAAAAHgIACAAADT/hgEYCCAMABgCIAqHSGAIAAAAgAAAACAHIAwgTFBYBoSQHUAAHpgCeIAPY7PTOAAAAAAAAAAAIAAIAAAAQAAAAAAAAAA==

> <PUBCHEM_IUPAC_INCHI>
InChI=1S/C43H68ClNO11/c1-10-30-18-24(2)17-25(3)19-36(53-8)39-37(54-9)21-27(5)43(51,56-39)40(48)41(49)45-16-12-11-13-32(45)42(50)55-38(28(6)33(46)23-34(30)47)26(4)20-29-14-15-31(44)35(22-29)52-7/h18,20,25,27-33,35-39,46,51H,10-17,19,21-23H2,1-9H3/b24-18-,26-20+/t25-,27+,28+,29-,30+,31-,32-,33-,35+,36-,37-,38+,39+,43+/m0/s1

> <PUBCHEM_IUPAC_INCHIKEY>
KASDHRXLYQOAKZ-OLHLVPFQSA-N

> <PUBCHEM_XLOGP3>
3.8

> <PUBCHEM_EXACT_MASS>
809.44809

> <PUBCHEM_MOLECULAR_FORMULA>
C43H68ClNO11

> <PUBCHEM_MOLECULAR_WEIGHT>
810.45312

> <PUBCHEM_OPENEYE_CAN_SMILES>
CCC1C=C(CC(CC(C2C(CC(C(O2)(C(=O)C(=O)N3CCCCC3C(=O)OC(C(C(CC1=O)O)C)C(=CC4CCC(C(C4)OC)Cl)C)O)C)OC)OC)C)C

> <PUBCHEM_OPENEYE_ISO_SMILES>
CC[C@@H]1/C=C(\C[C@@H](C[C@@H]([C@@H]2[C@H](C[C@H]([C@@](O2)(C(=O)C(=O)N3CCCC[C@H]3C(=O)O[C@@H]([C@@H]([C@H](CC1=O)O)C)/C(=C/[C@@H]4CC[C@@H]([C@@H](C4)OC)Cl)/C)O)C)OC)OC)C)/C

> <PUBCHEM_CACTVS_TPSA>
158

> <PUBCHEM_MONOISOTOPIC_WEIGHT>
809.44809

> <PUBCHEM_TOTAL_CHARGE>
0

> <PUBCHEM_HEAVY_ATOM_COUNT>
56

> <PUBCHEM_ATOM_DEF_STEREO_COUNT>
14

> <PUBCHEM_ATOM_UDEF_STEREO_COUNT>
0

> <PUBCHEM_BOND_DEF_STEREO_COUNT>
2

> <PUBCHEM_BOND_UDEF_STEREO_COUNT>
0

> <PUBCHEM_ISOTOPIC_ATOM_COUNT>
0

> <PUBCHEM_COMPONENT_COUNT>
1

> <PUBCHEM_CACTVS_TAUTO_COUNT>
5

> <PUBCHEM_COORDINATE_TYPE>
1
5
255

> <PUBCHEM_BONDANNOTATIONS>
32  1  6
42  10  6
14  57  6
15  22  6
21  39  5
24  40  6
25  70  5
16  3  6
35  41  5
36  49  5
19  4  5
48  54  5
18  5  6
28  8  6

$$$$
