65027
  -OEChem-12171208212D

 75 78  0     1  0  0  0  0  0999 V2000
    6.3301   -2.0490    0.0000 S   0  0  0  0  0  0  0  0  0  0  0  0
    2.0000   -4.5490    0.0000 F   0  0  0  0  0  0  0  0  0  0  0  0
    2.3660   -3.1830    0.0000 F   0  0  0  0  0  0  0  0  0  0  0  0
    3.3660   -4.9151    0.0000 F   0  0  0  0  0  0  0  0  0  0  0  0
    9.7942    0.9510    0.0000 O   0  0  0  0  0  0  0  0  0  0  0  0
   12.3923   -0.5490    0.0000 O   0  0  0  0  0  0  0  0  0  0  0  0
    8.9282   -0.5490    0.0000 O   0  0  0  0  0  0  0  0  0  0  0  0
    5.8301   -1.1830    0.0000 O   0  0  0  0  0  0  0  0  0  0  0  0
    6.8301   -2.9151    0.0000 O   0  0  0  0  0  0  0  0  0  0  0  0
    7.1962   -1.5490    0.0000 N   0  0  0  0  0  0  0  0  0  0  0  0
    5.4641   -3.5490    0.0000 N   0  0  0  0  0  0  0  0  0  0  0  0
   10.6603    1.4510    0.0000 C   0  0  1  0  0  0  0  0  0  0  0  0
   11.5263    0.9510    0.0000 C   0  0  0  0  0  0  0  0  0  0  0  0
   11.1603    2.3170    0.0000 C   0  0  0  0  0  0  0  0  0  0  0  0
   10.1603    2.3170    0.0000 C   0  0  0  0  0  0  0  0  0  0  0  0
   10.6603   -0.5490    0.0000 C   0  0  0  0  0  0  0  0  0  0  0  0
   11.5263   -0.0490    0.0000 C   0  0  0  0  0  0  0  0  0  0  0  0
   12.1603    2.3170    0.0000 C   0  0  0  0  0  0  0  0  0  0  0  0
   10.6603   -1.5490    0.0000 C   0  0  2  0  0  0  0  0  0  0  0  0
    9.1602    2.3170    0.0000 C   0  0  0  0  0  0  0  0  0  0  0  0
    9.7942   -0.0490    0.0000 C   0  0  0  0  0  0  0  0  0  0  0  0
   11.5263   -2.0490    0.0000 C   0  0  0  0  0  0  0  0  0  0  0  0
    9.7942   -2.0490    0.0000 C   0  0  0  0  0  0  0  0  0  0  0  0
   12.6603    3.1830    0.0000 C   0  0  0  0  0  0  0  0  0  0  0  0
    8.6602    3.1830    0.0000 C   0  0  0  0  0  0  0  0  0  0  0  0
   11.5263   -3.0490    0.0000 C   0  0  0  0  0  0  0  0  0  0  0  0
    8.9282   -1.5490    0.0000 C   0  0  0  0  0  0  0  0  0  0  0  0
    9.7942   -3.0490    0.0000 C   0  0  0  0  0  0  0  0  0  0  0  0
   13.6603    3.1830    0.0000 C   0  0  0  0  0  0  0  0  0  0  0  0
   12.1603    4.0490    0.0000 C   0  0  0  0  0  0  0  0  0  0  0  0
    8.0622   -2.0490    0.0000 C   0  0  0  0  0  0  0  0  0  0  0  0
    8.9282   -3.5490    0.0000 C   0  0  0  0  0  0  0  0  0  0  0  0
    8.0622   -3.0490    0.0000 C   0  0  0  0  0  0  0  0  0  0  0  0
   14.1603    4.0490    0.0000 C   0  0  0  0  0  0  0  0  0  0  0  0
   12.6603    4.9151    0.0000 C   0  0  0  0  0  0  0  0  0  0  0  0
   13.6603    4.9151    0.0000 C   0  0  0  0  0  0  0  0  0  0  0  0
    5.4641   -2.5490    0.0000 C   0  0  0  0  0  0  0  0  0  0  0  0
    4.5981   -2.0490    0.0000 C   0  0  0  0  0  0  0  0  0  0  0  0
    3.7320   -2.5490    0.0000 C   0  0  0  0  0  0  0  0  0  0  0  0
    3.7320   -3.5490    0.0000 C   0  0  0  0  0  0  0  0  0  0  0  0
    4.5981   -4.0490    0.0000 C   0  0  0  0  0  0  0  0  0  0  0  0
    2.8660   -4.0490    0.0000 C   0  0  0  0  0  0  0  0  0  0  0  0
   12.1369    0.8433    0.0000 H   0  0  0  0  0  0  0  0  0  0  0  0
   11.7383    1.5336    0.0000 H   0  0  0  0  0  0  0  0  0  0  0  0
   11.2679    2.9276    0.0000 H   0  0  0  0  0  0  0  0  0  0  0  0
   10.5776    2.5290    0.0000 H   0  0  0  0  0  0  0  0  0  0  0  0
   10.7429    2.5290    0.0000 H   0  0  0  0  0  0  0  0  0  0  0  0
   10.0526    2.9276    0.0000 H   0  0  0  0  0  0  0  0  0  0  0  0
   12.0526    1.7064    0.0000 H   0  0  0  0  0  0  0  0  0  0  0  0
   12.7429    2.1049    0.0000 H   0  0  0  0  0  0  0  0  0  0  0  0
   11.1972   -1.2390    0.0000 H   0  0  0  0  0  0  0  0  0  0  0  0
    8.5776    2.1049    0.0000 H   0  0  0  0  0  0  0  0  0  0  0  0
    9.2679    1.7064    0.0000 H   0  0  0  0  0  0  0  0  0  0  0  0
   12.1369   -2.1567    0.0000 H   0  0  0  0  0  0  0  0  0  0  0  0
   11.7383   -1.4664    0.0000 H   0  0  0  0  0  0  0  0  0  0  0  0
    9.1972    3.4930    0.0000 H   0  0  0  0  0  0  0  0  0  0  0  0
    8.3503    3.7200    0.0000 H   0  0  0  0  0  0  0  0  0  0  0  0
    8.1233    2.8730    0.0000 H   0  0  0  0  0  0  0  0  0  0  0  0
   10.9063   -3.0490    0.0000 H   0  0  0  0  0  0  0  0  0  0  0  0
   11.5263   -3.6690    0.0000 H   0  0  0  0  0  0  0  0  0  0  0  0
   12.1463   -3.0490    0.0000 H   0  0  0  0  0  0  0  0  0  0  0  0
    8.9282   -0.9290    0.0000 H   0  0  0  0  0  0  0  0  0  0  0  0
   10.3312   -3.3590    0.0000 H   0  0  0  0  0  0  0  0  0  0  0  0
    8.3913   -0.2390    0.0000 H   0  0  0  0  0  0  0  0  0  0  0  0
   13.9703    2.6461    0.0000 H   0  0  0  0  0  0  0  0  0  0  0  0
   11.5403    4.0490    0.0000 H   0  0  0  0  0  0  0  0  0  0  0  0
    8.9282   -4.1690    0.0000 H   0  0  0  0  0  0  0  0  0  0  0  0
    7.5252   -3.3590    0.0000 H   0  0  0  0  0  0  0  0  0  0  0  0
   14.7803    4.0490    0.0000 H   0  0  0  0  0  0  0  0  0  0  0  0
   12.3503    5.4520    0.0000 H   0  0  0  0  0  0  0  0  0  0  0  0
   13.9703    5.4520    0.0000 H   0  0  0  0  0  0  0  0  0  0  0  0
    7.1962   -0.9290    0.0000 H   0  0  0  0  0  0  0  0  0  0  0  0
    4.5981   -1.4290    0.0000 H   0  0  0  0  0  0  0  0  0  0  0  0
    3.1951   -2.2390    0.0000 H   0  0  0  0  0  0  0  0  0  0  0  0
    4.5981   -4.6690    0.0000 H   0  0  0  0  0  0  0  0  0  0  0  0
  1  8  2  0  0  0  0
  1  9  2  0  0  0  0
  1 10  1  0  0  0  0
  1 37  1  0  0  0  0
  2 42  1  0  0  0  0
  3 42  1  0  0  0  0
  4 42  1  0  0  0  0
  5 12  1  0  0  0  0
  5 21  1  0  0  0  0
  6 17  2  0  0  0  0
  7 21  1  0  0  0  0
  7 64  1  0  0  0  0
 10 31  1  0  0  0  0
 10 72  1  0  0  0  0
 11 37  2  0  0  0  0
 11 41  1  0  0  0  0
 12 13  1  0  0  0  0
 12 14  1  6  0  0  0
 12 15  1  0  0  0  0
 13 17  1  0  0  0  0
 13 43  1  0  0  0  0
 13 44  1  0  0  0  0
 14 18  1  0  0  0  0
 14 45  1  0  0  0  0
 14 46  1  0  0  0  0
 15 20  1  0  0  0  0
 15 47  1  0  0  0  0
 15 48  1  0  0  0  0
 16 17  1  0  0  0  0
 16 19  1  0  0  0  0
 16 21  2  0  0  0  0
 18 24  1  0  0  0  0
 18 49  1  0  0  0  0
 18 50  1  0  0  0  0
 19 22  1  6  0  0  0
 19 23  1  0  0  0  0
 19 51  1  0  0  0  0
 20 25  1  0  0  0  0
 20 52  1  0  0  0  0
 20 53  1  0  0  0  0
 22 26  1  0  0  0  0
 22 54  1  0  0  0  0
 22 55  1  0  0  0  0
 23 27  2  0  0  0  0
 23 28  1  0  0  0  0
 24 29  2  0  0  0  0
 24 30  1  0  0  0  0
 25 56  1  0  0  0  0
 25 57  1  0  0  0  0
 25 58  1  0  0  0  0
 26 59  1  0  0  0  0
 26 60  1  0  0  0  0
 26 61  1  0  0  0  0
 27 31  1  0  0  0  0
 27 62  1  0  0  0  0
 28 32  2  0  0  0  0
 28 63  1  0  0  0  0
 29 34  1  0  0  0  0
 29 65  1  0  0  0  0
 30 35  2  0  0  0  0
 30 66  1  0  0  0  0
 31 33  2  0  0  0  0
 32 33  1  0  0  0  0
 32 67  1  0  0  0  0
 33 68  1  0  0  0  0
 34 36  2  0  0  0  0
 34 69  1  0  0  0  0
 35 36  1  0  0  0  0
 35 70  1  0  0  0  0
 36 71  1  0  0  0  0
 37 38  1  0  0  0  0
 38 39  2  0  0  0  0
 38 73  1  0  0  0  0
 39 40  1  0  0  0  0
 39 74  1  0  0  0  0
 40 41  2  0  0  0  0
 40 42  1  0  0  0  0
 41 75  1  0  0  0  0
M  END
> <PUBCHEM_COMPOUND_CID>
65027

> <PUBCHEM_COMPOUND_CANONICALIZED>
1

> <PUBCHEM_CACTVS_COMPLEXITY>
1050

> <PUBCHEM_CACTVS_HBOND_ACCEPTOR>
10

> <PUBCHEM_CACTVS_HBOND_DONOR>
2

> <PUBCHEM_CACTVS_ROTATABLE_BOND>
11

> <PUBCHEM_CACTVS_SUBSKEYS>
AAADcfB7OYBAAAAAAAAAAAAAAAAAAAAAAAA8YIEAAAAAAAAB0AAAHwQQSAAADUzB2hQ+yZJIFgKoArR3RHDK2DAxIiAI2Dk4ZNgYIPbAkZGEIAhksADMyAeYyPCOgAAAQAAAAAAAAACAAAAAAAAAAAAAAA==

> <PUBCHEM_IUPAC_OPENEYE_NAME>
N-[3-[(1R)-1-[(2R)-6-hydroxy-4-oxo-2-(2-phenylethyl)-2-propyl-3H-pyran-5-yl]propyl]phenyl]-5-(trifluoromethyl)pyridine-2-sulfonamide

> <PUBCHEM_IUPAC_CAS_NAME>
N-[3-[(1R)-1-[(2R)-6-hydroxy-4-oxo-2-(2-phenylethyl)-2-propyl-3H-pyran-5-yl]propyl]phenyl]-5-(trifluoromethyl)-2-pyridinesulfonamide

> <PUBCHEM_IUPAC_NAME>
N-[3-[(1R)-1-[(2R)-6-hydroxy-4-oxo-2-(2-phenylethyl)-2-propyl-3H-pyran-5-yl]propyl]phenyl]-5-(trifluoromethyl)pyridine-2-sulfonamide

> <PUBCHEM_IUPAC_SYSTEMATIC_NAME>
N-[3-[(1R)-1-[(2R)-6-oxidanyl-4-oxidanylidene-2-(2-phenylethyl)-2-propyl-3H-pyran-5-yl]propyl]phenyl]-5-(trifluoromethyl)pyridine-2-sulfonamide

> <PUBCHEM_IUPAC_TRADITIONAL_NAME>
N-[3-[(1R)-1-[(2R)-6-hydroxy-4-keto-2-phenethyl-2-propyl-3H-pyran-5-yl]propyl]phenyl]-5-(trifluoromethyl)pyridine-2-sulfonamide

> <PUBCHEM_IUPAC_INCHI>
InChI=1S/C31H33F3N2O5S/c1-3-16-30(17-15-21-9-6-5-7-10-21)19-26(37)28(29(38)41-30)25(4-2)22-11-8-12-24(18-22)36-42(39,40)27-14-13-23(20-35-27)31(32,33)34/h5-14,18,20,25,36,38H,3-4,15-17,19H2,1-2H3/t25-,30-/m1/s1

> <PUBCHEM_IUPAC_INCHIKEY>
NZPXPXAGXYTROM-FYBSXPHGSA-N

> <PUBCHEM_XLOGP3_AA>
6.7

> <PUBCHEM_EXACT_MASS>
602.206228

> <PUBCHEM_MOLECULAR_FORMULA>
C31H33F3N2O5S

> <PUBCHEM_MOLECULAR_WEIGHT>
602.66433

> <PUBCHEM_OPENEYE_CAN_SMILES>
CCCC1(CC(=O)C(=C(O1)O)C(CC)C2=CC(=CC=C2)NS(=O)(=O)C3=NC=C(C=C3)C(F)(F)F)CCC4=CC=CC=C4

> <PUBCHEM_OPENEYE_ISO_SMILES>
CCC[C@]1(CC(=O)C(=C(O1)O)[C@H](CC)C2=CC(=CC=C2)NS(=O)(=O)C3=NC=C(C=C3)C(F)(F)F)CCC4=CC=CC=C4

> <PUBCHEM_CACTVS_TPSA>
114

> <PUBCHEM_MONOISOTOPIC_WEIGHT>
602.206228

> <PUBCHEM_TOTAL_CHARGE>
0

> <PUBCHEM_HEAVY_ATOM_COUNT>
42

> <PUBCHEM_ATOM_DEF_STEREO_COUNT>
2

> <PUBCHEM_ATOM_UDEF_STEREO_COUNT>
0

> <PUBCHEM_BOND_DEF_STEREO_COUNT>
0

> <PUBCHEM_BOND_UDEF_STEREO_COUNT>
0

> <PUBCHEM_ISOTOPIC_ATOM_COUNT>
0

> <PUBCHEM_COMPONENT_COUNT>
1

> <PUBCHEM_CACTVS_TAUTO_COUNT>
5

> <PUBCHEM_COORDINATE_TYPE>
1
5
255

> <PUBCHEM_BONDANNOTATIONS>
11  37  8
11  41  8
12  14  6
19  22  6
23  27  8
23  28  8
24  29  8
24  30  8
27  31  8
28  32  8
29  34  8
30  35  8
31  33  8
32  33  8
34  36  8
35  36  8
37  38  8
38  39  8
39  40  8
40  41  8

$$$$
