772
  -OEChem-12171207522D

112115  0     1  0  0  0  0  0999 V2000
    6.3301    3.3450    0.0000 S   0  0  0  0  0  0  0  0  0  0  0  0
    4.5981    1.3450    0.0000 S   0  0  0  0  0  0  0  0  0  0  0  0
   11.5263   -1.6550    0.0000 S   0  0  0  0  0  0  0  0  0  0  0  0
    2.8660   -1.6550    0.0000 S   0  0  0  0  0  0  0  0  0  0  0  0
   14.9904   -2.6550    0.0000 S   0  0  0  0  0  0  0  0  0  0  0  0
    8.0622    0.3450    0.0000 O   0  0  0  0  0  0  0  0  0  0  0  0
    8.9282    1.8450    0.0000 O   0  0  0  0  0  0  0  0  0  0  0  0
    5.4641   -0.1550    0.0000 O   0  0  0  0  0  0  0  0  0  0  0  0
   11.5263    1.3450    0.0000 O   0  0  0  0  0  0  0  0  0  0  0  0
   12.3923   -0.1550    0.0000 O   0  0  0  0  0  0  0  0  0  0  0  0
    5.4641    1.8450    0.0000 O   0  0  0  0  0  0  0  0  0  0  0  0
   14.9904    0.3450    0.0000 O   0  0  0  0  0  0  0  0  0  0  0  0
    6.3301   -1.6550    0.0000 O   0  0  0  0  0  0  0  0  0  0  0  0
   10.6603   -1.1550    0.0000 O   0  0  0  0  0  0  0  0  0  0  0  0
    8.9282   -0.1550    0.0000 O   0  0  0  0  0  0  0  0  0  0  0  0
   12.3923    1.8450    0.0000 O   0  0  0  0  0  0  0  0  0  0  0  0
    3.7320   -1.1550    0.0000 O   0  0  0  0  0  0  0  0  0  0  0  0
    8.0622   -1.6550    0.0000 O   0  0  0  0  0  0  0  0  0  0  0  0
    3.7320   -3.1550    0.0000 O   0  0  0  0  0  0  0  0  0  0  0  0
   15.8564    1.8450    0.0000 O   0  0  0  0  0  0  0  0  0  0  0  0
    5.4641   -4.1550    0.0000 O   0  0  0  0  0  0  0  0  0  0  0  0
   14.9904   -1.6550    0.0000 O   0  0  0  0  0  0  0  0  0  0  0  0
   11.5263    3.3450    0.0000 O   0  0  0  0  0  0  0  0  0  0  0  0
    5.4641    3.8450    0.0000 O   0  0  0  0  0  0  0  0  0  0  0  0
    9.7942    3.3450    0.0000 O   0  0  0  0  0  0  0  0  0  0  0  0
    6.8301    4.2110    0.0000 O   0  0  0  0  0  0  0  0  0  0  0  0
    5.8301    2.4790    0.0000 O   0  0  0  0  0  0  0  0  0  0  0  0
    3.7320    0.8450    0.0000 O   0  0  0  0  0  0  0  0  0  0  0  0
    4.0981    2.2110    0.0000 O   0  0  0  0  0  0  0  0  0  0  0  0
    5.0981    0.4790    0.0000 O   0  0  0  0  0  0  0  0  0  0  0  0
   12.3923   -2.1550    0.0000 O   0  0  0  0  0  0  0  0  0  0  0  0
    8.0622   -2.6550    0.0000 O   0  0  0  0  0  0  0  0  0  0  0  0
   11.0263   -2.5210    0.0000 O   0  0  0  0  0  0  0  0  0  0  0  0
   12.0263   -0.7890    0.0000 O   0  0  0  0  0  0  0  0  0  0  0  0
    7.1962   -4.1550    0.0000 O   0  0  0  0  0  0  0  0  0  0  0  0
    2.0000   -2.1550    0.0000 O   0  0  0  0  0  0  0  0  0  0  0  0
   15.8564    2.8450    0.0000 O   0  0  0  0  0  0  0  0  0  0  0  0
    3.3660   -2.5210    0.0000 O   0  0  0  0  0  0  0  0  0  0  0  0
    2.3660   -0.7890    0.0000 O   0  0  0  0  0  0  0  0  0  0  0  0
   14.9904   -3.6550    0.0000 O   0  0  0  0  0  0  0  0  0  0  0  0
   15.9904   -2.6550    0.0000 O   0  0  0  0  0  0  0  0  0  0  0  0
   13.9904   -2.6550    0.0000 O   0  0  0  0  0  0  0  0  0  0  0  0
    7.1962    2.8450    0.0000 N   0  0  0  0  0  0  0  0  0  0  0  0
   14.1244    2.8450    0.0000 N   0  0  0  0  0  0  0  0  0  0  0  0
    7.1962    1.8450    0.0000 C   0  0  3  0  0  0  0  0  0  0  0  0
    6.3301    1.3450    0.0000 C   0  0  3  0  0  0  0  0  0  0  0  0
    6.3301    0.3450    0.0000 C   0  0  3  0  0  0  0  0  0  0  0  0
    8.0622    1.3450    0.0000 C   0  0  3  0  0  0  0  0  0  0  0  0
    7.1962   -0.1550    0.0000 C   0  0  3  0  0  0  0  0  0  0  0  0
    9.7942    1.3450    0.0000 C   0  0  3  0  0  0  0  0  0  0  0  0
    9.7942    0.3450    0.0000 C   0  0  3  0  0  0  0  0  0  0  0  0
   10.6603   -0.1550    0.0000 C   0  0  3  0  0  0  0  0  0  0  0  0
   11.5263    0.3450    0.0000 C   0  0  3  0  0  0  0  0  0  0  0  0
   10.6603    1.8450    0.0000 C   0  0  3  0  0  0  0  0  0  0  0  0
   13.2583    0.3450    0.0000 C   0  0  3  0  0  0  0  0  0  0  0  0
    5.4641   -1.1550    0.0000 C   0  0  3  0  0  0  0  0  0  0  0  0
   13.2583    1.3450    0.0000 C   0  0  3  0  0  0  0  0  0  0  0  0
   14.1244   -0.1550    0.0000 C   0  0  3  0  0  0  0  0  0  0  0  0
   14.1244    1.8450    0.0000 C   0  0  3  0  0  0  0  0  0  0  0  0
    7.1962   -1.1550    0.0000 C   0  0  0  0  0  0  0  0  0  0  0  0
    4.5981   -1.6550    0.0000 C   0  0  3  0  0  0  0  0  0  0  0  0
    4.5981   -2.6550    0.0000 C   0  0  3  0  0  0  0  0  0  0  0  0
   14.9904    1.3450    0.0000 C   0  0  3  0  0  0  0  0  0  0  0  0
    5.4641   -3.1550    0.0000 C   0  0  3  0  0  0  0  0  0  0  0  0
    6.3301   -2.6550    0.0000 C   0  0  3  0  0  0  0  0  0  0  0  0
   10.6603    2.8450    0.0000 C   0  0  0  0  0  0  0  0  0  0  0  0
   14.1244   -1.1550    0.0000 C   0  0  0  0  0  0  0  0  0  0  0  0
    7.1962   -3.1550    0.0000 C   0  0  0  0  0  0  0  0  0  0  0  0
   14.9904    3.3450    0.0000 C   0  0  0  0  0  0  0  0  0  0  0  0
   14.9904    4.3450    0.0000 C   0  0  0  0  0  0  0  0  0  0  0  0
    6.6592    2.1550    0.0000 H   0  0  0  0  0  0  0  0  0  0  0  0
    5.7932    1.0350    0.0000 H   0  0  0  0  0  0  0  0  0  0  0  0
    5.7932    0.6550    0.0000 H   0  0  0  0  0  0  0  0  0  0  0  0
    8.0622    1.9650    0.0000 H   0  0  0  0  0  0  0  0  0  0  0  0
    7.7331   -0.4650    0.0000 H   0  0  0  0  0  0  0  0  0  0  0  0
    9.2573    1.0350    0.0000 H   0  0  0  0  0  0  0  0  0  0  0  0
    9.2573    0.6550    0.0000 H   0  0  0  0  0  0  0  0  0  0  0  0
   11.1972   -0.4650    0.0000 H   0  0  0  0  0  0  0  0  0  0  0  0
   11.5263   -0.2750    0.0000 H   0  0  0  0  0  0  0  0  0  0  0  0
   11.1972    2.1550    0.0000 H   0  0  0  0  0  0  0  0  0  0  0  0
   13.2583   -0.2750    0.0000 H   0  0  0  0  0  0  0  0  0  0  0  0
    4.9272   -0.8450    0.0000 H   0  0  0  0  0  0  0  0  0  0  0  0
   13.2583    1.9650    0.0000 H   0  0  0  0  0  0  0  0  0  0  0  0
   14.6613   -0.4650    0.0000 H   0  0  0  0  0  0  0  0  0  0  0  0
    7.7331    3.1550    0.0000 H   0  0  0  0  0  0  0  0  0  0  0  0
   13.5874    2.1550    0.0000 H   0  0  0  0  0  0  0  0  0  0  0  0
    6.5856   -1.0473    0.0000 H   0  0  0  0  0  0  0  0  0  0  0  0
    6.9841   -1.7376    0.0000 H   0  0  0  0  0  0  0  0  0  0  0  0
    4.5981   -1.0350    0.0000 H   0  0  0  0  0  0  0  0  0  0  0  0
    4.5981   -3.2750    0.0000 H   0  0  0  0  0  0  0  0  0  0  0  0
   14.9904    1.9650    0.0000 H   0  0  0  0  0  0  0  0  0  0  0  0
    6.0010   -3.4650    0.0000 H   0  0  0  0  0  0  0  0  0  0  0  0
    6.8671   -2.3450    0.0000 H   0  0  0  0  0  0  0  0  0  0  0  0
   13.5138   -1.0473    0.0000 H   0  0  0  0  0  0  0  0  0  0  0  0
   13.9123   -1.7376    0.0000 H   0  0  0  0  0  0  0  0  0  0  0  0
    8.9282   -0.7750    0.0000 H   0  0  0  0  0  0  0  0  0  0  0  0
   13.5874    3.1550    0.0000 H   0  0  0  0  0  0  0  0  0  0  0  0
   12.3923    2.4650    0.0000 H   0  0  0  0  0  0  0  0  0  0  0  0
    8.5991   -1.3450    0.0000 H   0  0  0  0  0  0  0  0  0  0  0  0
    3.7320   -3.7750    0.0000 H   0  0  0  0  0  0  0  0  0  0  0  0
   16.3933    1.5350    0.0000 H   0  0  0  0  0  0  0  0  0  0  0  0
    4.9272   -4.4650    0.0000 H   0  0  0  0  0  0  0  0  0  0  0  0
   11.5263    3.9650    0.0000 H   0  0  0  0  0  0  0  0  0  0  0  0
    5.4641    4.4650    0.0000 H   0  0  0  0  0  0  0  0  0  0  0  0
    3.1951    1.1550    0.0000 H   0  0  0  0  0  0  0  0  0  0  0  0
   15.6104    4.3450    0.0000 H   0  0  0  0  0  0  0  0  0  0  0  0
   14.9904    4.9650    0.0000 H   0  0  0  0  0  0  0  0  0  0  0  0
   14.3704    4.3450    0.0000 H   0  0  0  0  0  0  0  0  0  0  0  0
   12.3923   -2.7750    0.0000 H   0  0  0  0  0  0  0  0  0  0  0  0
    8.5991   -2.9650    0.0000 H   0  0  0  0  0  0  0  0  0  0  0  0
    2.0000   -2.7750    0.0000 H   0  0  0  0  0  0  0  0  0  0  0  0
   15.5273   -3.9650    0.0000 H   0  0  0  0  0  0  0  0  0  0  0  0
  1 24  1  0  0  0  0
  1 26  2  0  0  0  0
  1 27  2  0  0  0  0
  1 43  1  0  0  0  0
  2 11  1  0  0  0  0
  2 28  1  0  0  0  0
  2 29  2  0  0  0  0
  2 30  2  0  0  0  0
  3 14  1  0  0  0  0
  3 31  1  0  0  0  0
  3 33  2  0  0  0  0
  3 34  2  0  0  0  0
  4 17  1  0  0  0  0
  4 36  1  0  0  0  0
  4 38  2  0  0  0  0
  4 39  2  0  0  0  0
  5 22  1  0  0  0  0
  5 40  1  0  0  0  0
  5 41  2  0  0  0  0
  5 42  2  0  0  0  0
  6 48  1  0  0  0  0
  6 49  1  0  0  0  0
  7 48  1  0  0  0  0
  7 50  1  0  0  0  0
  8 47  1  0  0  0  0
  8 56  1  0  0  0  0
  9 53  1  0  0  0  0
  9 54  1  0  0  0  0
 10 53  1  0  0  0  0
 10 55  1  0  0  0  0
 11 46  1  0  0  0  0
 12 58  1  0  0  0  0
 12 63  1  0  0  0  0
 13 56  1  0  0  0  0
 13 65  1  0  0  0  0
 14 52  1  0  0  0  0
 15 51  1  0  0  0  0
 15 96  1  0  0  0  0
 16 57  1  0  0  0  0
 16 98  1  0  0  0  0
 17 61  1  0  0  0  0
 18 60  1  0  0  0  0
 18 99  1  0  0  0  0
 19 62  1  0  0  0  0
 19100  1  0  0  0  0
 20 63  1  0  0  0  0
 20101  1  0  0  0  0
 21 64  1  0  0  0  0
 21102  1  0  0  0  0
 22 67  1  0  0  0  0
 23 66  1  0  0  0  0
 23103  1  0  0  0  0
 24104  1  0  0  0  0
 25 66  2  0  0  0  0
 28105  1  0  0  0  0
 31109  1  0  0  0  0
 32 68  1  0  0  0  0
 32110  1  0  0  0  0
 35 68  2  0  0  0  0
 36111  1  0  0  0  0
 37 69  2  0  0  0  0
 40112  1  0  0  0  0
 43 45  1  0  0  0  0
 43 85  1  0  0  0  0
 44 59  1  0  0  0  0
 44 69  1  0  0  0  0
 44 97  1  0  0  0  0
 45 46  1  0  0  0  0
 45 48  1  0  0  0  0
 45 71  1  0  0  0  0
 46 47  1  0  0  0  0
 46 72  1  0  0  0  0
 47 49  1  0  0  0  0
 47 73  1  0  0  0  0
 48 74  1  0  0  0  0
 49 60  1  0  0  0  0
 49 75  1  0  0  0  0
 50 51  1  0  0  0  0
 50 54  1  0  0  0  0
 50 76  1  0  0  0  0
 51 52  1  0  0  0  0
 51 77  1  0  0  0  0
 52 53  1  0  0  0  0
 52 78  1  0  0  0  0
 53 79  1  0  0  0  0
 54 66  1  0  0  0  0
 54 80  1  0  0  0  0
 55 57  1  0  0  0  0
 55 58  1  0  0  0  0
 55 81  1  0  0  0  0
 56 61  1  0  0  0  0
 56 82  1  0  0  0  0
 57 59  1  0  0  0  0
 57 83  1  0  0  0  0
 58 67  1  0  0  0  0
 58 84  1  0  0  0  0
 59 63  1  0  0  0  0
 59 86  1  0  0  0  0
 60 87  1  0  0  0  0
 60 88  1  0  0  0  0
 61 62  1  0  0  0  0
 61 89  1  0  0  0  0
 62 64  1  0  0  0  0
 62 90  1  0  0  0  0
 63 91  1  0  0  0  0
 64 65  1  0  0  0  0
 64 92  1  0  0  0  0
 65 68  1  0  0  0  0
 65 93  1  0  0  0  0
 67 94  1  0  0  0  0
 67 95  1  0  0  0  0
 69 70  1  0  0  0  0
 70106  1  0  0  0  0
 70107  1  0  0  0  0
 70108  1  0  0  0  0
M  END
> <PUBCHEM_COMPOUND_CID>
772

> <PUBCHEM_COMPOUND_CANONICALIZED>
1

> <PUBCHEM_CACTVS_COMPLEXITY>
2410

> <PUBCHEM_CACTVS_HBOND_ACCEPTOR>
38

> <PUBCHEM_CACTVS_HBOND_DONOR>
15

> <PUBCHEM_CACTVS_ROTATABLE_BOND>
21

> <PUBCHEM_CACTVS_SUBSKEYS>
AAADcfB7PgBwAAAAAAAAAAAAAAAAAAAAAAAkSJEgAAAAAAAAAAAAHgAQSAAACDzxgAcCCALABoAIAAGQGDIAAAAAAAAAAIFIAAATEBYAgAQnQAAHNgCXAAH6fA9AAAAAAAAAAAAAAAAAAAAAAAAAAAAAAA==

> <PUBCHEM_IUPAC_OPENEYE_NAME>
6-[6-[6-[5-acetamido-4,6-dihydroxy-2-(sulfooxymethyl)tetrahydropyran-3-yl]oxy-2-carboxy-4-hydroxy-5-sulfooxy-tetrahydropyran-3-yl]oxy-2-(hydroxymethyl)-5-(sulfoamino)-4-sulfooxy-tetrahydropyran-3-yl]oxy-3,4-dihydroxy-5-sulfooxy-tetrahydropyran-2-carboxylic acid

> <PUBCHEM_IUPAC_CAS_NAME>
6-[[6-[[6-[[5-acetamido-4,6-dihydroxy-2-(sulfooxymethyl)-3-oxanyl]oxy]-2-carboxy-4-hydroxy-5-sulfooxy-3-oxanyl]oxy]-2-(hydroxymethyl)-5-(sulfoamino)-4-sulfooxy-3-oxanyl]oxy]-3,4-dihydroxy-5-sulfooxy-2-oxanecarboxylic acid

> <PUBCHEM_IUPAC_NAME>
6-[6-[6-[5-acetamido-4,6-dihydroxy-2-(sulfooxymethyl)oxan-3-yl]oxy-2-carboxy-4-hydroxy-5-sulfooxyoxan-3-yl]oxy-2-(hydroxymethyl)-5-(sulfoamino)-4-sulfooxyoxan-3-yl]oxy-3,4-dihydroxy-5-sulfooxyoxane-2-carboxylic acid

> <PUBCHEM_IUPAC_SYSTEMATIC_NAME>
6-[6-[6-[5-acetamido-4,6-bis(oxidanyl)-2-(sulfooxymethyl)oxan-3-yl]oxy-2-carboxy-4-oxidanyl-5-sulfooxy-oxan-3-yl]oxy-2-(hydroxymethyl)-5-(sulfoamino)-4-sulfooxy-oxan-3-yl]oxy-3,4-bis(oxidanyl)-5-sulfooxy-oxane-2-carboxylic acid

> <PUBCHEM_IUPAC_TRADITIONAL_NAME>
6-[6-[6-[5-acetamido-4,6-dihydroxy-2-(sulfoxymethyl)tetrahydropyran-3-yl]oxy-2-carboxy-4-hydroxy-5-sulfoxy-tetrahydropyran-3-yl]oxy-2-methylol-5-(sulfoamino)-4-sulfoxy-tetrahydropyran-3-yl]oxy-3,4-dihydroxy-5-sulfoxy-tetrahydropyran-2-carboxylic acid

> <PUBCHEM_IUPAC_INCHI>
InChI=1S/C26H42N2O37S5/c1-4(30)27-7-9(31)13(6(56-23(7)39)3-55-67(43,44)45)58-26-19(65-70(52,53)54)12(34)16(20(62-26)22(37)38)60-24-8(28-66(40,41)42)15(63-68(46,47)48)14(5(2-29)57-24)59-25-18(64-69(49,50)51)11(33)10(32)17(61-25)21(35)36/h5-20,23-26,28-29,31-34,39H,2-3H2,1H3,(H,27,30)(H,35,36)(H,37,38)(H,40,41,42)(H,43,44,45)(H,46,47,48)(H,49,50,51)(H,52,53,54)

> <PUBCHEM_IUPAC_INCHIKEY>
HTTJABKRGRZYRN-UHFFFAOYSA-N

> <PUBCHEM_XLOGP3_AA>
-10.8

> <PUBCHEM_EXACT_MASS>
1134.006995

> <PUBCHEM_MOLECULAR_FORMULA>
C26H42N2O37S5

> <PUBCHEM_MOLECULAR_WEIGHT>
1134.92788

> <PUBCHEM_OPENEYE_CAN_SMILES>
CC(=O)NC1C(C(C(OC1O)COS(=O)(=O)O)OC2C(C(C(C(O2)C(=O)O)OC3C(C(C(C(O3)CO)OC4C(C(C(C(O4)C(=O)O)O)O)OS(=O)(=O)O)OS(=O)(=O)O)NS(=O)(=O)O)O)OS(=O)(=O)O)O

> <PUBCHEM_OPENEYE_ISO_SMILES>
CC(=O)NC1C(C(C(OC1O)COS(=O)(=O)O)OC2C(C(C(C(O2)C(=O)O)OC3C(C(C(C(O3)CO)OC4C(C(C(C(O4)C(=O)O)O)O)OS(=O)(=O)O)OS(=O)(=O)O)NS(=O)(=O)O)O)OS(=O)(=O)O)O

> <PUBCHEM_CACTVS_TPSA>
652

> <PUBCHEM_MONOISOTOPIC_WEIGHT>
1134.006995

> <PUBCHEM_TOTAL_CHARGE>
0

> <PUBCHEM_HEAVY_ATOM_COUNT>
70

> <PUBCHEM_ATOM_DEF_STEREO_COUNT>
0

> <PUBCHEM_ATOM_UDEF_STEREO_COUNT>
20

> <PUBCHEM_BOND_DEF_STEREO_COUNT>
0

> <PUBCHEM_BOND_UDEF_STEREO_COUNT>
0

> <PUBCHEM_ISOTOPIC_ATOM_COUNT>
0

> <PUBCHEM_COMPONENT_COUNT>
1

> <PUBCHEM_CACTVS_TAUTO_COUNT>
2

> <PUBCHEM_COORDINATE_TYPE>
1
5
255

> <PUBCHEM_BONDANNOTATIONS>
53  10  3
55  10  3
46  11  3
52  14  3
51  15  3
57  16  3
61  17  3
62  19  3
63  20  3
64  21  3
45  43  3
59  44  3
49  60  3
54  66  3
58  67  3
65  68  3
48  7  3
50  7  3
47  8  3
56  8  3

$$$$
