82146
  -OEChem-12171208222D

 54 56  0     0  0  0  0  0  0999 V2000
    7.2448   -3.3867    0.0000 O   0  0  0  0  0  0  0  0  0  0  0  0
    5.5128   -3.3801    0.0000 O   0  0  0  0  0  0  0  0  0  0  0  0
    2.8660    1.1407    0.0000 C   0  0  0  0  0  0  0  0  0  0  0  0
    2.8660    3.1407    0.0000 C   0  0  0  0  0  0  0  0  0  0  0  0
    2.0000    1.6407    0.0000 C   0  0  0  0  0  0  0  0  0  0  0  0
    2.0000    2.6407    0.0000 C   0  0  0  0  0  0  0  0  0  0  0  0
    3.7320    1.6407    0.0000 C   0  0  0  0  0  0  0  0  0  0  0  0
    3.7320    2.6407    0.0000 C   0  0  0  0  0  0  0  0  0  0  0  0
    2.3660    0.2747    0.0000 C   0  0  0  0  0  0  0  0  0  0  0  0
    3.3660    0.2747    0.0000 C   0  0  0  0  0  0  0  0  0  0  0  0
    2.3660    4.0067    0.0000 C   0  0  0  0  0  0  0  0  0  0  0  0
    3.3660    4.0067    0.0000 C   0  0  0  0  0  0  0  0  0  0  0  0
    4.6260    1.1060    0.0000 C   0  0  0  0  0  0  0  0  0  0  0  0
    4.6260    3.1754    0.0000 C   0  0  0  0  0  0  0  0  0  0  0  0
    5.5321    1.6199    0.0000 C   0  0  0  0  0  0  0  0  0  0  0  0
    5.5321    2.6615    0.0000 C   0  0  0  0  0  0  0  0  0  0  0  0
    6.3961    1.1166    0.0000 C   0  0  0  0  0  0  0  0  0  0  0  0
    6.3961    3.1649    0.0000 C   0  0  0  0  0  0  0  0  0  0  0  0
    6.3923    0.1166    0.0000 C   0  0  0  0  0  0  0  0  0  0  0  0
    7.2641    1.6132    0.0000 C   0  0  0  0  0  0  0  0  0  0  0  0
    5.5244   -0.3801    0.0000 C   0  0  0  0  0  0  0  0  0  0  0  0
    7.2564   -0.3868    0.0000 C   0  0  0  0  0  0  0  0  0  0  0  0
    5.5205   -1.3801    0.0000 C   0  0  0  0  0  0  0  0  0  0  0  0
    7.2525   -1.3868    0.0000 C   0  0  0  0  0  0  0  0  0  0  0  0
    6.3846   -1.8834    0.0000 C   0  0  0  0  0  0  0  0  0  0  0  0
    6.3807   -2.8834    0.0000 C   0  0  0  0  0  0  0  0  0  0  0  0
    1.3894    1.7484    0.0000 H   0  0  0  0  0  0  0  0  0  0  0  0
    1.7880    1.0581    0.0000 H   0  0  0  0  0  0  0  0  0  0  0  0
    1.7880    3.2233    0.0000 H   0  0  0  0  0  0  0  0  0  0  0  0
    1.3894    2.5330    0.0000 H   0  0  0  0  0  0  0  0  0  0  0  0
    1.8291    0.5847    0.0000 H   0  0  0  0  0  0  0  0  0  0  0  0
    2.0560   -0.2622    0.0000 H   0  0  0  0  0  0  0  0  0  0  0  0
    2.9030   -0.0353    0.0000 H   0  0  0  0  0  0  0  0  0  0  0  0
    2.8291   -0.0353    0.0000 H   0  0  0  0  0  0  0  0  0  0  0  0
    3.6760   -0.2622    0.0000 H   0  0  0  0  0  0  0  0  0  0  0  0
    3.9030    0.5847    0.0000 H   0  0  0  0  0  0  0  0  0  0  0  0
    2.9030    4.3167    0.0000 H   0  0  0  0  0  0  0  0  0  0  0  0
    2.0560    4.5437    0.0000 H   0  0  0  0  0  0  0  0  0  0  0  0
    1.8291    3.6967    0.0000 H   0  0  0  0  0  0  0  0  0  0  0  0
    3.9030    3.6967    0.0000 H   0  0  0  0  0  0  0  0  0  0  0  0
    3.6760    4.5437    0.0000 H   0  0  0  0  0  0  0  0  0  0  0  0
    2.8291    4.3167    0.0000 H   0  0  0  0  0  0  0  0  0  0  0  0
    4.6188    0.4861    0.0000 H   0  0  0  0  0  0  0  0  0  0  0  0
    4.6188    3.7953    0.0000 H   0  0  0  0  0  0  0  0  0  0  0  0
    6.7082    2.6291    0.0000 H   0  0  0  0  0  0  0  0  0  0  0  0
    6.9319    3.4769    0.0000 H   0  0  0  0  0  0  0  0  0  0  0  0
    6.0841    3.7006    0.0000 H   0  0  0  0  0  0  0  0  0  0  0  0
    7.7998    1.3012    0.0000 H   0  0  0  0  0  0  0  0  0  0  0  0
    7.2665    2.2332    0.0000 H   0  0  0  0  0  0  0  0  0  0  0  0
    4.9886   -0.0680    0.0000 H   0  0  0  0  0  0  0  0  0  0  0  0
    7.7945   -0.0788    0.0000 H   0  0  0  0  0  0  0  0  0  0  0  0
    4.9824   -1.6880    0.0000 H   0  0  0  0  0  0  0  0  0  0  0  0
    7.7883   -1.6988    0.0000 H   0  0  0  0  0  0  0  0  0  0  0  0
    7.2424   -4.0067    0.0000 H   0  0  0  0  0  0  0  0  0  0  0  0
  1 26  1  0  0  0  0
  1 54  1  0  0  0  0
  2 26  2  0  0  0  0
  3  5  1  0  0  0  0
  3  7  1  0  0  0  0
  3  9  1  0  0  0  0
  3 10  1  0  0  0  0
  4  6  1  0  0  0  0
  4  8  1  0  0  0  0
  4 11  1  0  0  0  0
  4 12  1  0  0  0  0
  5  6  1  0  0  0  0
  5 27  1  0  0  0  0
  5 28  1  0  0  0  0
  6 29  1  0  0  0  0
  6 30  1  0  0  0  0
  7  8  2  0  0  0  0
  7 13  1  0  0  0  0
  8 14  1  0  0  0  0
  9 31  1  0  0  0  0
  9 32  1  0  0  0  0
  9 33  1  0  0  0  0
 10 34  1  0  0  0  0
 10 35  1  0  0  0  0
 10 36  1  0  0  0  0
 11 37  1  0  0  0  0
 11 38  1  0  0  0  0
 11 39  1  0  0  0  0
 12 40  1  0  0  0  0
 12 41  1  0  0  0  0
 12 42  1  0  0  0  0
 13 15  2  0  0  0  0
 13 43  1  0  0  0  0
 14 16  2  0  0  0  0
 14 44  1  0  0  0  0
 15 16  1  0  0  0  0
 15 17  1  0  0  0  0
 16 18  1  0  0  0  0
 17 19  1  0  0  0  0
 17 20  2  0  0  0  0
 18 45  1  0  0  0  0
 18 46  1  0  0  0  0
 18 47  1  0  0  0  0
 19 21  2  0  0  0  0
 19 22  1  0  0  0  0
 20 48  1  0  0  0  0
 20 49  1  0  0  0  0
 21 23  1  0  0  0  0
 21 50  1  0  0  0  0
 22 24  2  0  0  0  0
 22 51  1  0  0  0  0
 23 25  2  0  0  0  0
 23 52  1  0  0  0  0
 24 25  1  0  0  0  0
 24 53  1  0  0  0  0
 25 26  1  0  0  0  0
M  END
> <PUBCHEM_COMPOUND_CID>
82146

> <PUBCHEM_COMPOUND_CANONICALIZED>
1

> <PUBCHEM_CACTVS_COMPLEXITY>
551

> <PUBCHEM_CACTVS_HBOND_ACCEPTOR>
2

> <PUBCHEM_CACTVS_HBOND_DONOR>
1

> <PUBCHEM_CACTVS_ROTATABLE_BOND>
3

> <PUBCHEM_CACTVS_SUBSKEYS>
AAADceB4MAAAAAAAAAAAAAAAAAAAAAAAAAAwYMAAAAAAAADBQAAAGgAACAAADgCAmAAyCIAAAgCIAiDSCAACAAAkAAAIiAEACMgIJjKAFRCAcQAkwAEImYeIyPCPwAACAAAQAACAAAQAACAAAAAAAAAAAA==

> <PUBCHEM_IUPAC_OPENEYE_NAME>
4-[1-(1,1,4,4,7-pentamethyltetralin-6-yl)vinyl]benzoic acid

> <PUBCHEM_IUPAC_CAS_NAME>
4-[1-(3,5,5,8,8-pentamethyl-6,7-dihydronaphthalen-2-yl)ethenyl]benzoic acid

> <PUBCHEM_IUPAC_NAME>
4-[1-(3,5,5,8,8-pentamethyl-6,7-dihydronaphthalen-2-yl)ethenyl]benzoic acid

> <PUBCHEM_IUPAC_SYSTEMATIC_NAME>
4-[1-(3,5,5,8,8-pentamethyl-6,7-dihydronaphthalen-2-yl)ethenyl]benzoic acid

> <PUBCHEM_IUPAC_TRADITIONAL_NAME>
4-[1-(1,1,4,4,7-pentamethyltetralin-6-yl)vinyl]benzoic acid

> <PUBCHEM_IUPAC_INCHI>
InChI=1S/C24H28O2/c1-15-13-20-21(24(5,6)12-11-23(20,3)4)14-19(15)16(2)17-7-9-18(10-8-17)22(25)26/h7-10,13-14H,2,11-12H2,1,3-6H3,(H,25,26)

> <PUBCHEM_IUPAC_INCHIKEY>
NAVMQTYZDKMPEU-UHFFFAOYSA-N

> <PUBCHEM_XLOGP3_AA>
7.6

> <PUBCHEM_EXACT_MASS>
348.20893

> <PUBCHEM_MOLECULAR_FORMULA>
C24H28O2

> <PUBCHEM_MOLECULAR_WEIGHT>
348.47792

> <PUBCHEM_OPENEYE_CAN_SMILES>
CC1=CC2=C(C=C1C(=C)C3=CC=C(C=C3)C(=O)O)C(CCC2(C)C)(C)C

> <PUBCHEM_OPENEYE_ISO_SMILES>
CC1=CC2=C(C=C1C(=C)C3=CC=C(C=C3)C(=O)O)C(CCC2(C)C)(C)C

> <PUBCHEM_CACTVS_TPSA>
37.3

> <PUBCHEM_MONOISOTOPIC_WEIGHT>
348.20893

> <PUBCHEM_TOTAL_CHARGE>
0

> <PUBCHEM_HEAVY_ATOM_COUNT>
26

> <PUBCHEM_ATOM_DEF_STEREO_COUNT>
0

> <PUBCHEM_ATOM_UDEF_STEREO_COUNT>
0

> <PUBCHEM_BOND_DEF_STEREO_COUNT>
0

> <PUBCHEM_BOND_UDEF_STEREO_COUNT>
0

> <PUBCHEM_ISOTOPIC_ATOM_COUNT>
0

> <PUBCHEM_COMPONENT_COUNT>
1

> <PUBCHEM_CACTVS_TAUTO_COUNT>
1

> <PUBCHEM_COORDINATE_TYPE>
1
5
255

> <PUBCHEM_BONDANNOTATIONS>
13  15  8
14  16  8
15  16  8
19  21  8
19  22  8
21  23  8
22  24  8
23  25  8
24  25  8
7  13  8
7  8  8
8  14  8

$$$$
