96312
  -OEChem-12171208222D

 36 38  0     1  0  0  0  0  0999 V2000
    5.8055    0.9869    0.0000 O   0  0  0  0  0  0  0  0  0  0  0  0
    8.1515   -0.1050    0.0000 O   0  0  0  0  0  0  0  0  0  0  0  0
    8.1552    2.0706    0.0000 O   0  0  0  0  0  0  0  0  0  0  0  0
    6.7577    3.4884    0.0000 O   0  0  0  0  0  0  0  0  0  0  0  0
    4.2690   -3.5784    0.0000 O   0  0  0  0  0  0  0  0  0  0  0  0
    6.0812   -0.7737    0.0000 N   0  0  0  0  0  0  0  0  0  0  0  0
    6.0812   -2.3832    0.0000 N   0  0  0  0  0  0  0  0  0  0  0  0
    4.2690   -0.5784    0.0000 N   0  0  0  0  0  0  0  0  0  0  0  0
    3.4030   -2.0784    0.0000 N   0  0  0  0  0  0  0  0  0  0  0  0
    2.5369   -0.5784    0.0000 N   0  0  0  0  0  0  0  0  0  0  0  0
    7.3435    0.4842    0.0000 C   0  0  1  0  0  0  0  0  0  0  0  0
    6.3919    0.1768    0.0000 C   0  0  1  0  0  0  0  0  0  0  0  0
    7.3452    1.4842    0.0000 C   0  0  1  0  0  0  0  0  0  0  0  0
    6.3947    1.7949    0.0000 C   0  0  1  0  0  0  0  0  0  0  0  0
    6.0873    2.7464    0.0000 C   0  0  0  0  0  0  0  0  0  0  0  0
    5.1350   -1.0784    0.0000 C   0  0  0  0  0  0  0  0  0  0  0  0
    6.6648   -1.5784    0.0000 C   0  0  0  0  0  0  0  0  0  0  0  0
    5.1350   -2.0784    0.0000 C   0  0  0  0  0  0  0  0  0  0  0  0
    4.2690   -2.5784    0.0000 C   0  0  0  0  0  0  0  0  0  0  0  0
    3.4030   -1.0784    0.0000 C   0  0  0  0  0  0  0  0  0  0  0  0
    3.4030   -4.0784    0.0000 C   0  0  0  0  0  0  0  0  0  0  0  0
    7.2454   -0.1280    0.0000 H   0  0  0  0  0  0  0  0  0  0  0  0
    5.7794    0.0809    0.0000 H   0  0  0  0  0  0  0  0  0  0  0  0
    7.2493    2.0967    0.0000 H   0  0  0  0  0  0  0  0  0  0  0  0
    5.7825    1.8929    0.0000 H   0  0  0  0  0  0  0  0  0  0  0  0
    5.7065    3.2357    0.0000 H   0  0  0  0  0  0  0  0  0  0  0  0
    5.5394    2.4563    0.0000 H   0  0  0  0  0  0  0  0  0  0  0  0
    8.7183    0.1462    0.0000 H   0  0  0  0  0  0  0  0  0  0  0  0
    8.7212    1.8174    0.0000 H   0  0  0  0  0  0  0  0  0  0  0  0
    7.2848   -1.5784    0.0000 H   0  0  0  0  0  0  0  0  0  0  0  0
    6.5672    4.0784    0.0000 H   0  0  0  0  0  0  0  0  0  0  0  0
    2.0000   -0.8884    0.0000 H   0  0  0  0  0  0  0  0  0  0  0  0
    2.5369    0.0416    0.0000 H   0  0  0  0  0  0  0  0  0  0  0  0
    3.0930   -3.5415    0.0000 H   0  0  0  0  0  0  0  0  0  0  0  0
    2.8660   -4.3884    0.0000 H   0  0  0  0  0  0  0  0  0  0  0  0
    3.7130   -4.6154    0.0000 H   0  0  0  0  0  0  0  0  0  0  0  0
  1 12  1  0  0  0  0
  1 14  1  0  0  0  0
 11  2  1  1  0  0  0
  2 28  1  0  0  0  0
 13  3  1  1  0  0  0
  3 29  1  0  0  0  0
  4 15  1  0  0  0  0
  4 31  1  0  0  0  0
  5 19  1  0  0  0  0
  5 21  1  0  0  0  0
 12  6  1  6  0  0  0
  6 16  1  0  0  0  0
  6 17  1  0  0  0  0
  7 17  2  0  0  0  0
  7 18  1  0  0  0  0
  8 16  1  0  0  0  0
  8 20  2  0  0  0  0
  9 19  2  0  0  0  0
  9 20  1  0  0  0  0
 10 20  1  0  0  0  0
 10 32  1  0  0  0  0
 10 33  1  0  0  0  0
 11 12  1  0  0  0  0
 11 13  1  0  0  0  0
 11 22  1  0  0  0  0
 12 23  1  0  0  0  0
 13 14  1  0  0  0  0
 13 24  1  0  0  0  0
 14 15  1  6  0  0  0
 14 25  1  0  0  0  0
 15 26  1  0  0  0  0
 15 27  1  0  0  0  0
 16 18  2  0  0  0  0
 17 30  1  0  0  0  0
 18 19  1  0  0  0  0
 21 34  1  0  0  0  0
 21 35  1  0  0  0  0
 21 36  1  0  0  0  0
M  END
> <PUBCHEM_COMPOUND_CID>
96312

> <PUBCHEM_COMPOUND_CANONICALIZED>
1

> <PUBCHEM_CACTVS_COMPLEXITY>
377

> <PUBCHEM_CACTVS_HBOND_ACCEPTOR>
9

> <PUBCHEM_CACTVS_HBOND_DONOR>
4

> <PUBCHEM_CACTVS_ROTATABLE_BOND>
3

> <PUBCHEM_CACTVS_SUBSKEYS>
AAADccBzuAAAAAAAAAAAAAAAAAAAAWJAAAAsAAAAAAAAAFgB+AAAHgAQCAAACBzhlwYH9L9MFgCgAQZhZASAiC0RcKABUCAtXBCHXAJE6EgfRCgPAArTICDwMAIAAAAAAAAAAAAAAAAAAAAAAAAAAAAAAA==

> <PUBCHEM_IUPAC_OPENEYE_NAME>
(2R,3R,4S,5R)-2-(2-amino-6-methoxy-purin-9-yl)-5-(hydroxymethyl)tetrahydrofuran-3,4-diol

> <PUBCHEM_IUPAC_CAS_NAME>
(2R,3R,4S,5R)-2-(2-amino-6-methoxy-9-purinyl)-5-(hydroxymethyl)oxolane-3,4-diol

> <PUBCHEM_IUPAC_NAME>
(2R,3R,4S,5R)-2-(2-amino-6-methoxypurin-9-yl)-5-(hydroxymethyl)oxolane-3,4-diol

> <PUBCHEM_IUPAC_SYSTEMATIC_NAME>
(2R,3R,4S,5R)-2-(2-azanyl-6-methoxy-purin-9-yl)-5-(hydroxymethyl)oxolane-3,4-diol

> <PUBCHEM_IUPAC_TRADITIONAL_NAME>
(2R,3R,4S,5R)-2-(2-amino-6-methoxy-purin-9-yl)-5-methylol-tetrahydrofuran-3,4-diol

> <PUBCHEM_IUPAC_INCHI>
InChI=1S/C11H15N5O5/c1-20-9-5-8(14-11(12)15-9)16(3-13-5)10-7(19)6(18)4(2-17)21-10/h3-4,6-7,10,17-19H,2H2,1H3,(H2,12,14,15)/t4-,6-,7-,10-/m1/s1

> <PUBCHEM_IUPAC_INCHIKEY>
IXOXBSCIXZEQEQ-KQYNXXCUSA-N

> <PUBCHEM_XLOGP3>
-0.7

> <PUBCHEM_EXACT_MASS>
297.107319

> <PUBCHEM_MOLECULAR_FORMULA>
C11H15N5O5

> <PUBCHEM_MOLECULAR_WEIGHT>
297.2673

> <PUBCHEM_OPENEYE_CAN_SMILES>
COC1=NC(=NC2=C1N=CN2C3C(C(C(O3)CO)O)O)N

> <PUBCHEM_OPENEYE_ISO_SMILES>
COC1=NC(=NC2=C1N=CN2[C@H]3[C@@H]([C@@H]([C@H](O3)CO)O)O)N

> <PUBCHEM_CACTVS_TPSA>
149

> <PUBCHEM_MONOISOTOPIC_WEIGHT>
297.107319

> <PUBCHEM_TOTAL_CHARGE>
0

> <PUBCHEM_HEAVY_ATOM_COUNT>
21

> <PUBCHEM_ATOM_DEF_STEREO_COUNT>
4

> <PUBCHEM_ATOM_UDEF_STEREO_COUNT>
0

> <PUBCHEM_BOND_DEF_STEREO_COUNT>
0

> <PUBCHEM_BOND_UDEF_STEREO_COUNT>
0

> <PUBCHEM_ISOTOPIC_ATOM_COUNT>
0

> <PUBCHEM_COMPONENT_COUNT>
1

> <PUBCHEM_CACTVS_TAUTO_COUNT>
3

> <PUBCHEM_COORDINATE_TYPE>
1
5
255

> <PUBCHEM_BONDANNOTATIONS>
14  15  6
16  18  8
18  19  8
11  2  5
13  3  5
12  6  6
6  16  8
6  17  8
7  17  8
7  18  8
8  16  8
8  20  8
9  19  8
9  20  8

$$$$
